/*---------------------------------------------------------------------------*\
  =========                 |
  \\      /  F ield         | OpenFOAM: The Open Source CFD Toolbox
   \\    /   O peration     | Website:  https://openfoam.org
    \\  /    A nd           | Version:  7
     \\/     M anipulation  |
\*---------------------------------------------------------------------------*/
Build  : 7-1ff648926f77
Exec   : simpleFoam
Date   : Nov 14 2020
Time   : 20:54:39
Host   : "varad-XPS-15"
PID    : 2631
I/O    : uncollated
Case   : /home/varad/CFD/CFD-Sims/laminar-flow/square-cavity
nProcs : 1
sigFpe : Enabling floating point exception trapping (FOAM_SIGFPE).
fileModificationChecking : Monitoring run-time modified files using timeStampMaster (fileModificationSkew 10)
allowSystemOperations : Allowing user-supplied system call operations

// * * * * * * * * * * * * * * * * * * * * * * * * * * * * * * * * * * * * * //
Create time

Create mesh for time = 0


SIMPLE: Convergence criteria found
        p: tolerance 1e-06
        U: tolerance 1e-06
        "(k|epsilon|omega|f|v2)": tolerance 1e-06

Reading field p

Reading field U

Reading/calculating face flux field phi

Selecting incompressible transport model Newtonian
Selecting turbulence model type laminar
Selecting laminar stress model Stokes
No MRF models present

No finite volume options present

Starting time loop

Time = 1

smoothSolver:  Solving for Ux, Initial residual = 1, Final residual = 0.0559569, No Iterations 3
smoothSolver:  Solving for Uy, Initial residual = 0.998459, Final residual = 0.0311668, No Iterations 2
GAMG:  Solving for p, Initial residual = 1, Final residual = 0.030943, No Iterations 4
time step continuity errors : sum local = 0.00339802, global = 4.81538e-18, cumulative = 4.81538e-18
ExecutionTime = 0.01 s  ClockTime = 0 s

Time = 2

smoothSolver:  Solving for Ux, Initial residual = 0.166148, Final residual = 0.0137109, No Iterations 3
smoothSolver:  Solving for Uy, Initial residual = 0.395825, Final residual = 0.0333594, No Iterations 3
GAMG:  Solving for p, Initial residual = 0.763996, Final residual = 0.0290096, No Iterations 3
time step continuity errors : sum local = 0.0106995, global = 4.81962e-18, cumulative = 9.635e-18
ExecutionTime = 0.02 s  ClockTime = 0 s

Time = 3

smoothSolver:  Solving for Ux, Initial residual = 0.107709, Final residual = 0.00919543, No Iterations 3
smoothSolver:  Solving for Uy, Initial residual = 0.285688, Final residual = 0.0179453, No Iterations 4
GAMG:  Solving for p, Initial residual = 0.299259, Final residual = 0.0133477, No Iterations 3
time step continuity errors : sum local = 0.0100588, global = -2.72745e-17, cumulative = -1.76395e-17
ExecutionTime = 0.02 s  ClockTime = 0 s

Time = 4

smoothSolver:  Solving for Ux, Initial residual = 0.0808885, Final residual = 0.00618409, No Iterations 3
smoothSolver:  Solving for Uy, Initial residual = 0.244482, Final residual = 0.0243888, No Iterations 3
GAMG:  Solving for p, Initial residual = 0.168122, Final residual = 0.00824602, No Iterations 3
time step continuity errors : sum local = 0.00852024, global = -1.22026e-18, cumulative = -1.88597e-17
ExecutionTime = 0.02 s  ClockTime = 0 s

Time = 5

smoothSolver:  Solving for Ux, Initial residual = 0.0594115, Final residual = 0.00471852, No Iterations 3
smoothSolver:  Solving for Uy, Initial residual = 0.204507, Final residual = 0.020014, No Iterations 3
GAMG:  Solving for p, Initial residual = 0.139148, Final residual = 0.00730976, No Iterations 3
time step continuity errors : sum local = 0.00854127, global = 1.26716e-17, cumulative = -6.18811e-18
ExecutionTime = 0.03 s  ClockTime = 0 s

Time = 6

smoothSolver:  Solving for Ux, Initial residual = 0.0455978, Final residual = 0.00422527, No Iterations 3
smoothSolver:  Solving for Uy, Initial residual = 0.161149, Final residual = 0.00946484, No Iterations 4
GAMG:  Solving for p, Initial residual = 0.125802, Final residual = 0.00803627, No Iterations 3
time step continuity errors : sum local = 0.0101151, global = 7.72494e-18, cumulative = 1.53684e-18
ExecutionTime = 0.03 s  ClockTime = 0 s

Time = 7

smoothSolver:  Solving for Ux, Initial residual = 0.0392, Final residual = 0.00267444, No Iterations 4
smoothSolver:  Solving for Uy, Initial residual = 0.127007, Final residual = 0.00767432, No Iterations 4
GAMG:  Solving for p, Initial residual = 0.113696, Final residual = 0.00842052, No Iterations 3
time step continuity errors : sum local = 0.0113811, global = 4.05898e-17, cumulative = 4.21267e-17
ExecutionTime = 0.03 s  ClockTime = 0 s

Time = 8

smoothSolver:  Solving for Ux, Initial residual = 0.0374355, Final residual = 0.00288169, No Iterations 4
smoothSolver:  Solving for Uy, Initial residual = 0.105514, Final residual = 0.00658311, No Iterations 4
GAMG:  Solving for p, Initial residual = 0.107928, Final residual = 0.00843681, No Iterations 3
time step continuity errors : sum local = 0.0121306, global = -1.0707e-17, cumulative = 3.14196e-17
ExecutionTime = 0.04 s  ClockTime = 0 s

Time = 9

smoothSolver:  Solving for Ux, Initial residual = 0.0383407, Final residual = 0.00307821, No Iterations 4
smoothSolver:  Solving for Uy, Initial residual = 0.0935776, Final residual = 0.00582638, No Iterations 4
GAMG:  Solving for p, Initial residual = 0.106992, Final residual = 0.00996456, No Iterations 3
time step continuity errors : sum local = 0.013776, global = -1.13841e-17, cumulative = 2.00355e-17
ExecutionTime = 0.05 s  ClockTime = 0 s

Time = 10

smoothSolver:  Solving for Ux, Initial residual = 0.0400925, Final residual = 0.00321814, No Iterations 4
smoothSolver:  Solving for Uy, Initial residual = 0.0851393, Final residual = 0.00526116, No Iterations 4
GAMG:  Solving for p, Initial residual = 0.110015, Final residual = 0.00773673, No Iterations 3
time step continuity errors : sum local = 0.0115191, global = 1.06389e-17, cumulative = 3.06744e-17
ExecutionTime = 0.05 s  ClockTime = 0 s

Time = 11

smoothSolver:  Solving for Ux, Initial residual = 0.0409871, Final residual = 0.0033281, No Iterations 4
smoothSolver:  Solving for Uy, Initial residual = 0.0781554, Final residual = 0.00471991, No Iterations 4
GAMG:  Solving for p, Initial residual = 0.108626, Final residual = 0.00682046, No Iterations 3
time step continuity errors : sum local = 0.0108362, global = 3.96411e-17, cumulative = 7.03155e-17
ExecutionTime = 0.05 s  ClockTime = 0 s

Time = 12

smoothSolver:  Solving for Ux, Initial residual = 0.0413222, Final residual = 0.00339132, No Iterations 4
smoothSolver:  Solving for Uy, Initial residual = 0.0718386, Final residual = 0.00425202, No Iterations 4
GAMG:  Solving for p, Initial residual = 0.106746, Final residual = 0.00781246, No Iterations 3
time step continuity errors : sum local = 0.0120366, global = 7.52165e-18, cumulative = 7.78372e-17
ExecutionTime = 0.05 s  ClockTime = 0 s

Time = 13

smoothSolver:  Solving for Ux, Initial residual = 0.0414767, Final residual = 0.00338382, No Iterations 4
smoothSolver:  Solving for Uy, Initial residual = 0.0659352, Final residual = 0.00382519, No Iterations 4
GAMG:  Solving for p, Initial residual = 0.103903, Final residual = 0.00552503, No Iterations 3
time step continuity errors : sum local = 0.00950548, global = 1.30782e-17, cumulative = 9.09154e-17
ExecutionTime = 0.06 s  ClockTime = 0 s

Time = 14

smoothSolver:  Solving for Ux, Initial residual = 0.0410677, Final residual = 0.00334727, No Iterations 4
smoothSolver:  Solving for Uy, Initial residual = 0.0599008, Final residual = 0.0034101, No Iterations 4
GAMG:  Solving for p, Initial residual = 0.0973848, Final residual = 0.006023, No Iterations 3
time step continuity errors : sum local = 0.0102438, global = -9.08019e-18, cumulative = 8.18352e-17
ExecutionTime = 0.06 s  ClockTime = 0 s

Time = 15

smoothSolver:  Solving for Ux, Initial residual = 0.040086, Final residual = 0.00327741, No Iterations 4
smoothSolver:  Solving for Uy, Initial residual = 0.0545671, Final residual = 0.00306373, No Iterations 4
GAMG:  Solving for p, Initial residual = 0.093148, Final residual = 0.00412191, No Iterations 3
time step continuity errors : sum local = 0.00791973, global = 1.13502e-17, cumulative = 9.31854e-17
ExecutionTime = 0.06 s  ClockTime = 0 s

Time = 16

smoothSolver:  Solving for Ux, Initial residual = 0.0385597, Final residual = 0.00315416, No Iterations 4
smoothSolver:  Solving for Uy, Initial residual = 0.0497987, Final residual = 0.00496129, No Iterations 3
GAMG:  Solving for p, Initial residual = 0.0852897, Final residual = 0.00800855, No Iterations 2
time step continuity errors : sum local = 0.0156813, global = 6.43745e-19, cumulative = 9.38291e-17
ExecutionTime = 0.06 s  ClockTime = 0 s

Time = 17

smoothSolver:  Solving for Ux, Initial residual = 0.0367653, Final residual = 0.00306466, No Iterations 4
smoothSolver:  Solving for Uy, Initial residual = 0.0462967, Final residual = 0.00257629, No Iterations 4
GAMG:  Solving for p, Initial residual = 0.0875154, Final residual = 0.00871395, No Iterations 2
time step continuity errors : sum local = 0.0178426, global = -6.84403e-18, cumulative = 8.69851e-17
ExecutionTime = 0.07 s  ClockTime = 0 s

Time = 18

smoothSolver:  Solving for Ux, Initial residual = 0.03427, Final residual = 0.00286231, No Iterations 4
smoothSolver:  Solving for Uy, Initial residual = 0.0427972, Final residual = 0.00233164, No Iterations 4
GAMG:  Solving for p, Initial residual = 0.080996, Final residual = 0.00784801, No Iterations 2
time step continuity errors : sum local = 0.0168742, global = -1.94479e-17, cumulative = 6.75372e-17
ExecutionTime = 0.07 s  ClockTime = 0 s

Time = 19

smoothSolver:  Solving for Ux, Initial residual = 0.0319914, Final residual = 0.00268793, No Iterations 4
smoothSolver:  Solving for Uy, Initial residual = 0.0403568, Final residual = 0.00229837, No Iterations 4
GAMG:  Solving for p, Initial residual = 0.0756785, Final residual = 0.00679289, No Iterations 2
time step continuity errors : sum local = 0.0152472, global = 4.74338e-19, cumulative = 6.80116e-17
ExecutionTime = 0.07 s  ClockTime = 0 s

Time = 20

smoothSolver:  Solving for Ux, Initial residual = 0.0296993, Final residual = 0.00250823, No Iterations 4
smoothSolver:  Solving for Uy, Initial residual = 0.0387151, Final residual = 0.00233525, No Iterations 4
GAMG:  Solving for p, Initial residual = 0.0712583, Final residual = 0.00328956, No Iterations 3
time step continuity errors : sum local = 0.00702098, global = -8.74138e-18, cumulative = 5.92702e-17
ExecutionTime = 0.08 s  ClockTime = 0 s

Time = 21

smoothSolver:  Solving for Ux, Initial residual = 0.0272601, Final residual = 0.00225172, No Iterations 4
smoothSolver:  Solving for Uy, Initial residual = 0.0372956, Final residual = 0.00241865, No Iterations 4
GAMG:  Solving for p, Initial residual = 0.0647023, Final residual = 0.00464249, No Iterations 2
time step continuity errors : sum local = 0.00998058, global = -2.18535e-17, cumulative = 3.74168e-17
ExecutionTime = 0.08 s  ClockTime = 0 s

Time = 22

smoothSolver:  Solving for Ux, Initial residual = 0.024964, Final residual = 0.00206542, No Iterations 4
smoothSolver:  Solving for Uy, Initial residual = 0.0346095, Final residual = 0.00234431, No Iterations 4
GAMG:  Solving for p, Initial residual = 0.0639905, Final residual = 0.00516177, No Iterations 2
time step continuity errors : sum local = 0.0111021, global = 2.07692e-17, cumulative = 5.8186e-17
ExecutionTime = 0.08 s  ClockTime = 0 s

Time = 23

smoothSolver:  Solving for Ux, Initial residual = 0.02229, Final residual = 0.00178896, No Iterations 4
smoothSolver:  Solving for Uy, Initial residual = 0.0324127, Final residual = 0.00231461, No Iterations 4
GAMG:  Solving for p, Initial residual = 0.0593311, Final residual = 0.00505862, No Iterations 2
time step continuity errors : sum local = 0.0109364, global = -1.65341e-17, cumulative = 4.16519e-17
ExecutionTime = 0.09 s  ClockTime = 0 s

Time = 24

smoothSolver:  Solving for Ux, Initial residual = 0.0201159, Final residual = 0.00159335, No Iterations 4
smoothSolver:  Solving for Uy, Initial residual = 0.0298138, Final residual = 0.00220353, No Iterations 4
GAMG:  Solving for p, Initial residual = 0.0553297, Final residual = 0.00478764, No Iterations 2
time step continuity errors : sum local = 0.0104301, global = 8.74138e-18, cumulative = 5.03933e-17
ExecutionTime = 0.09 s  ClockTime = 0 s

Time = 25

smoothSolver:  Solving for Ux, Initial residual = 0.0186002, Final residual = 0.0015158, No Iterations 4
smoothSolver:  Solving for Uy, Initial residual = 0.026888, Final residual = 0.0020001, No Iterations 4
GAMG:  Solving for p, Initial residual = 0.0518854, Final residual = 0.00465328, No Iterations 2
time step continuity errors : sum local = 0.0102537, global = 4.98057e-17, cumulative = 1.00199e-16
ExecutionTime = 0.09 s  ClockTime = 0 s

Time = 26

smoothSolver:  Solving for Ux, Initial residual = 0.0177843, Final residual = 0.00154188, No Iterations 4
smoothSolver:  Solving for Uy, Initial residual = 0.0239305, Final residual = 0.00173775, No Iterations 4
GAMG:  Solving for p, Initial residual = 0.0488238, Final residual = 0.00480319, No Iterations 2
time step continuity errors : sum local = 0.0107913, global = -3.38474e-17, cumulative = 6.63515e-17
ExecutionTime = 0.1 s  ClockTime = 0 s

Time = 27

smoothSolver:  Solving for Ux, Initial residual = 0.0174685, Final residual = 0.00162725, No Iterations 4
smoothSolver:  Solving for Uy, Initial residual = 0.0211924, Final residual = 0.0014632, No Iterations 4
GAMG:  Solving for p, Initial residual = 0.0465545, Final residual = 0.00243739, No Iterations 3
time step continuity errors : sum local = 0.00543932, global = -1.02322e-17, cumulative = 5.61193e-17
ExecutionTime = 0.11 s  ClockTime = 0 s

Time = 28

smoothSolver:  Solving for Ux, Initial residual = 0.017441, Final residual = 0.00173044, No Iterations 4
smoothSolver:  Solving for Uy, Initial residual = 0.0190199, Final residual = 0.00122715, No Iterations 4
GAMG:  Solving for p, Initial residual = 0.0422331, Final residual = 0.00202945, No Iterations 3
time step continuity errors : sum local = 0.00457483, global = 1.60427e-17, cumulative = 7.2162e-17
ExecutionTime = 0.11 s  ClockTime = 0 s

Time = 29

smoothSolver:  Solving for Ux, Initial residual = 0.0175013, Final residual = 0.00106348, No Iterations 5
smoothSolver:  Solving for Uy, Initial residual = 0.0173378, Final residual = 0.00106042, No Iterations 4
GAMG:  Solving for p, Initial residual = 0.0421302, Final residual = 0.00168144, No Iterations 3
time step continuity errors : sum local = 0.00431759, global = -2.71898e-17, cumulative = 4.49723e-17
ExecutionTime = 0.11 s  ClockTime = 0 s

Time = 30

smoothSolver:  Solving for Ux, Initial residual = 0.017263, Final residual = 0.00101935, No Iterations 5
smoothSolver:  Solving for Uy, Initial residual = 0.0164609, Final residual = 0.000963845, No Iterations 4
GAMG:  Solving for p, Initial residual = 0.040231, Final residual = 0.00263678, No Iterations 3
time step continuity errors : sum local = 0.00614156, global = 2.01256e-17, cumulative = 6.50979e-17
ExecutionTime = 0.11 s  ClockTime = 1 s

Time = 31

smoothSolver:  Solving for Ux, Initial residual = 0.0169533, Final residual = 0.00163795, No Iterations 4
smoothSolver:  Solving for Uy, Initial residual = 0.0159621, Final residual = 0.000965493, No Iterations 4
GAMG:  Solving for p, Initial residual = 0.0387552, Final residual = 0.00246177, No Iterations 3
time step continuity errors : sum local = 0.00567663, global = -2.77149e-17, cumulative = 3.73829e-17
ExecutionTime = 0.12 s  ClockTime = 1 s

Time = 32

smoothSolver:  Solving for Ux, Initial residual = 0.0163691, Final residual = 0.00152238, No Iterations 4
smoothSolver:  Solving for Uy, Initial residual = 0.0155788, Final residual = 0.000951739, No Iterations 4
GAMG:  Solving for p, Initial residual = 0.0376165, Final residual = 0.00142082, No Iterations 3
time step continuity errors : sum local = 0.00378931, global = -1.8838e-17, cumulative = 1.85449e-17
ExecutionTime = 0.12 s  ClockTime = 1 s

Time = 33

smoothSolver:  Solving for Ux, Initial residual = 0.0154378, Final residual = 0.00138909, No Iterations 4
smoothSolver:  Solving for Uy, Initial residual = 0.0152452, Final residual = 0.000932815, No Iterations 4
GAMG:  Solving for p, Initial residual = 0.036215, Final residual = 0.00332743, No Iterations 2
time step continuity errors : sum local = 0.00843791, global = -1.98545e-17, cumulative = -1.30953e-18
ExecutionTime = 0.12 s  ClockTime = 1 s

Time = 34

smoothSolver:  Solving for Ux, Initial residual = 0.0146707, Final residual = 0.00130912, No Iterations 4
smoothSolver:  Solving for Uy, Initial residual = 0.0147816, Final residual = 0.000932424, No Iterations 4
GAMG:  Solving for p, Initial residual = 0.0367963, Final residual = 0.00367347, No Iterations 2
time step continuity errors : sum local = 0.00951074, global = -6.15284e-17, cumulative = -6.28379e-17
ExecutionTime = 0.13 s  ClockTime = 1 s

Time = 35

smoothSolver:  Solving for Ux, Initial residual = 0.0134869, Final residual = 0.00119242, No Iterations 4
smoothSolver:  Solving for Uy, Initial residual = 0.0144062, Final residual = 0.000883523, No Iterations 4
GAMG:  Solving for p, Initial residual = 0.0346238, Final residual = 0.00178692, No Iterations 3
time step continuity errors : sum local = 0.004469, global = 2.49705e-17, cumulative = -3.78674e-17
ExecutionTime = 0.13 s  ClockTime = 1 s

Time = 36

smoothSolver:  Solving for Ux, Initial residual = 0.0121572, Final residual = 0.0010498, No Iterations 4
smoothSolver:  Solving for Uy, Initial residual = 0.0141738, Final residual = 0.000834775, No Iterations 4
GAMG:  Solving for p, Initial residual = 0.031237, Final residual = 0.00275619, No Iterations 2
time step continuity errors : sum local = 0.00694926, global = -3.77438e-17, cumulative = -7.56112e-17
ExecutionTime = 0.13 s  ClockTime = 1 s

Time = 37

smoothSolver:  Solving for Ux, Initial residual = 0.0114032, Final residual = 0.000985637, No Iterations 4
smoothSolver:  Solving for Uy, Initial residual = 0.0139226, Final residual = 0.000830116, No Iterations 4
GAMG:  Solving for p, Initial residual = 0.0320592, Final residual = 0.00308779, No Iterations 2
time step continuity errors : sum local = 0.00787141, global = -1.05032e-17, cumulative = -8.61144e-17
ExecutionTime = 0.14 s  ClockTime = 1 s

Time = 38

smoothSolver:  Solving for Ux, Initial residual = 0.010656, Final residual = 0.000900371, No Iterations 4
smoothSolver:  Solving for Uy, Initial residual = 0.0136465, Final residual = 0.000785782, No Iterations 4
GAMG:  Solving for p, Initial residual = 0.0307015, Final residual = 0.00298722, No Iterations 2
time step continuity errors : sum local = 0.00776814, global = 5.96311e-18, cumulative = -8.01513e-17
ExecutionTime = 0.14 s  ClockTime = 1 s

Time = 39

smoothSolver:  Solving for Ux, Initial residual = 0.0100318, Final residual = 0.000825646, No Iterations 4
smoothSolver:  Solving for Uy, Initial residual = 0.0131563, Final residual = 0.000736508, No Iterations 4
GAMG:  Solving for p, Initial residual = 0.0290966, Final residual = 0.00270173, No Iterations 2
time step continuity errors : sum local = 0.00721291, global = -2.46317e-17, cumulative = -1.04783e-16
ExecutionTime = 0.14 s  ClockTime = 1 s

Time = 40

smoothSolver:  Solving for Ux, Initial residual = 0.00951458, Final residual = 0.000767071, No Iterations 4
smoothSolver:  Solving for Uy, Initial residual = 0.0124945, Final residual = 0.000694511, No Iterations 4
GAMG:  Solving for p, Initial residual = 0.0274265, Final residual = 0.00130448, No Iterations 3
time step continuity errors : sum local = 0.0033481, global = -4.27074e-17, cumulative = -1.4749e-16
ExecutionTime = 0.15 s  ClockTime = 1 s

Time = 41

smoothSolver:  Solving for Ux, Initial residual = 0.00892119, Final residual = 0.000695568, No Iterations 4
smoothSolver:  Solving for Uy, Initial residual = 0.011832, Final residual = 0.000659731, No Iterations 4
GAMG:  Solving for p, Initial residual = 0.024969, Final residual = 0.00191944, No Iterations 2
time step continuity errors : sum local = 0.00505193, global = -1.20447e-17, cumulative = -1.59535e-16
ExecutionTime = 0.15 s  ClockTime = 1 s

Time = 42

smoothSolver:  Solving for Ux, Initial residual = 0.0085832, Final residual = 0.000681188, No Iterations 4
smoothSolver:  Solving for Uy, Initial residual = 0.0110047, Final residual = 0.00062485, No Iterations 4
GAMG:  Solving for p, Initial residual = 0.0246499, Final residual = 0.00204888, No Iterations 2
time step continuity errors : sum local = 0.00555954, global = -5.66665e-17, cumulative = -2.16202e-16
ExecutionTime = 0.15 s  ClockTime = 1 s

Time = 43

smoothSolver:  Solving for Ux, Initial residual = 0.00797149, Final residual = 0.000636474, No Iterations 4
smoothSolver:  Solving for Uy, Initial residual = 0.0102454, Final residual = 0.000584996, No Iterations 4
GAMG:  Solving for p, Initial residual = 0.0231336, Final residual = 0.000965808, No Iterations 3
time step continuity errors : sum local = 0.00255228, global = 2.96462e-18, cumulative = -2.13237e-16
ExecutionTime = 0.16 s  ClockTime = 1 s

Time = 44

smoothSolver:  Solving for Ux, Initial residual = 0.00731792, Final residual = 0.000566402, No Iterations 4
smoothSolver:  Solving for Uy, Initial residual = 0.00958544, Final residual = 0.000563234, No Iterations 4
GAMG:  Solving for p, Initial residual = 0.0210623, Final residual = 0.00142639, No Iterations 2
time step continuity errors : sum local = 0.0039233, global = 3.83875e-17, cumulative = -1.74849e-16
ExecutionTime = 0.16 s  ClockTime = 1 s

Time = 45

smoothSolver:  Solving for Ux, Initial residual = 0.00712472, Final residual = 0.000556365, No Iterations 4
smoothSolver:  Solving for Uy, Initial residual = 0.00873374, Final residual = 0.000517315, No Iterations 4
GAMG:  Solving for p, Initial residual = 0.0205574, Final residual = 0.00147809, No Iterations 2
time step continuity errors : sum local = 0.00424556, global = 2.18535e-18, cumulative = -1.72664e-16
ExecutionTime = 0.16 s  ClockTime = 1 s

Time = 46

smoothSolver:  Solving for Ux, Initial residual = 0.00675434, Final residual = 0.000518348, No Iterations 4
smoothSolver:  Solving for Uy, Initial residual = 0.00807576, Final residual = 0.000474789, No Iterations 4
GAMG:  Solving for p, Initial residual = 0.0192368, Final residual = 0.00186536, No Iterations 2
time step continuity errors : sum local = 0.00489617, global = -4.03018e-17, cumulative = -2.12966e-16
ExecutionTime = 0.17 s  ClockTime = 1 s

Time = 47

smoothSolver:  Solving for Ux, Initial residual = 0.00639494, Final residual = 0.000483918, No Iterations 4
smoothSolver:  Solving for Uy, Initial residual = 0.00749846, Final residual = 0.000434339, No Iterations 4
GAMG:  Solving for p, Initial residual = 0.0185464, Final residual = 0.00145843, No Iterations 2
time step continuity errors : sum local = 0.0040891, global = 1.72625e-17, cumulative = -1.95703e-16
ExecutionTime = 0.17 s  ClockTime = 1 s

Time = 48

smoothSolver:  Solving for Ux, Initial residual = 0.00595194, Final residual = 0.000440966, No Iterations 4
smoothSolver:  Solving for Uy, Initial residual = 0.00698583, Final residual = 0.000391054, No Iterations 4
GAMG:  Solving for p, Initial residual = 0.0171377, Final residual = 0.00160779, No Iterations 2
time step continuity errors : sum local = 0.00425091, global = -2.77151e-17, cumulative = -2.23418e-16
ExecutionTime = 0.17 s  ClockTime = 1 s

Time = 49

smoothSolver:  Solving for Ux, Initial residual = 0.00560483, Final residual = 0.000411242, No Iterations 4
smoothSolver:  Solving for Uy, Initial residual = 0.00646282, Final residual = 0.000350207, No Iterations 4
GAMG:  Solving for p, Initial residual = 0.0167908, Final residual = 0.00142165, No Iterations 2
time step continuity errors : sum local = 0.00391882, global = 1.67699e-18, cumulative = -2.21741e-16
ExecutionTime = 0.18 s  ClockTime = 1 s

Time = 50

smoothSolver:  Solving for Ux, Initial residual = 0.00525787, Final residual = 0.000381419, No Iterations 4
smoothSolver:  Solving for Uy, Initial residual = 0.00595255, Final residual = 0.000307792, No Iterations 4
GAMG:  Solving for p, Initial residual = 0.0159875, Final residual = 0.00134672, No Iterations 2
time step continuity errors : sum local = 0.00380577, global = 2.01763e-17, cumulative = -2.01565e-16
ExecutionTime = 0.18 s  ClockTime = 1 s

Time = 51

smoothSolver:  Solving for Ux, Initial residual = 0.00494612, Final residual = 0.000358726, No Iterations 4
smoothSolver:  Solving for Uy, Initial residual = 0.00549738, Final residual = 0.000531822, No Iterations 3
GAMG:  Solving for p, Initial residual = 0.015091, Final residual = 0.00136106, No Iterations 2
time step continuity errors : sum local = 0.00364743, global = -1.42132e-17, cumulative = -2.15778e-16
ExecutionTime = 0.19 s  ClockTime = 1 s

Time = 52

smoothSolver:  Solving for Ux, Initial residual = 0.00460743, Final residual = 0.00033313, No Iterations 4
smoothSolver:  Solving for Uy, Initial residual = 0.00517117, Final residual = 0.000491089, No Iterations 3
GAMG:  Solving for p, Initial residual = 0.0145261, Final residual = 0.0011547, No Iterations 2
time step continuity errors : sum local = 0.00319839, global = 1.32308e-17, cumulative = -2.02548e-16
ExecutionTime = 0.19 s  ClockTime = 1 s

Time = 53

smoothSolver:  Solving for Ux, Initial residual = 0.0042471, Final residual = 0.000307648, No Iterations 4
smoothSolver:  Solving for Uy, Initial residual = 0.0048589, Final residual = 0.000453539, No Iterations 3
GAMG:  Solving for p, Initial residual = 0.0135295, Final residual = 0.00104568, No Iterations 2
time step continuity errors : sum local = 0.00296874, global = -3.56263e-17, cumulative = -2.38174e-16
ExecutionTime = 0.19 s  ClockTime = 1 s

Time = 54

smoothSolver:  Solving for Ux, Initial residual = 0.00391766, Final residual = 0.000286123, No Iterations 4
smoothSolver:  Solving for Uy, Initial residual = 0.00458162, Final residual = 0.000428273, No Iterations 3
GAMG:  Solving for p, Initial residual = 0.0126224, Final residual = 0.00106865, No Iterations 2
time step continuity errors : sum local = 0.00288317, global = 1.39422e-17, cumulative = -2.24232e-16
ExecutionTime = 0.2 s  ClockTime = 1 s

Time = 55

smoothSolver:  Solving for Ux, Initial residual = 0.00359661, Final residual = 0.000265742, No Iterations 4
smoothSolver:  Solving for Uy, Initial residual = 0.004342, Final residual = 0.000412082, No Iterations 3
GAMG:  Solving for p, Initial residual = 0.0117902, Final residual = 0.000923317, No Iterations 2
time step continuity errors : sum local = 0.0025918, global = 1.99222e-17, cumulative = -2.0431e-16
ExecutionTime = 0.2 s  ClockTime = 1 s

Time = 56

smoothSolver:  Solving for Ux, Initial residual = 0.00330791, Final residual = 0.000250732, No Iterations 4
smoothSolver:  Solving for Uy, Initial residual = 0.00412321, Final residual = 0.000405507, No Iterations 3
GAMG:  Solving for p, Initial residual = 0.0107099, Final residual = 0.000888875, No Iterations 2
time step continuity errors : sum local = 0.00258238, global = -3.33562e-17, cumulative = -2.37666e-16
ExecutionTime = 0.2 s  ClockTime = 1 s

Time = 57

smoothSolver:  Solving for Ux, Initial residual = 0.00307556, Final residual = 0.000241893, No Iterations 4
smoothSolver:  Solving for Uy, Initial residual = 0.00392437, Final residual = 0.000210566, No Iterations 4
GAMG:  Solving for p, Initial residual = 0.0101315, Final residual = 0.000416908, No Iterations 3
time step continuity errors : sum local = 0.001191, global = -8.21622e-18, cumulative = -2.45882e-16
ExecutionTime = 0.21 s  ClockTime = 1 s

Time = 58

smoothSolver:  Solving for Ux, Initial residual = 0.00287661, Final residual = 0.000228401, No Iterations 4
smoothSolver:  Solving for Uy, Initial residual = 0.00374817, Final residual = 0.000202273, No Iterations 4
GAMG:  Solving for p, Initial residual = 0.008897, Final residual = 0.000780164, No Iterations 2
time step continuity errors : sum local = 0.00225919, global = 3.96405e-18, cumulative = -2.41918e-16
ExecutionTime = 0.21 s  ClockTime = 1 s

Time = 59

smoothSolver:  Solving for Ux, Initial residual = 0.00278997, Final residual = 0.000235834, No Iterations 4
smoothSolver:  Solving for Uy, Initial residual = 0.00349837, Final residual = 0.000199101, No Iterations 4
GAMG:  Solving for p, Initial residual = 0.00878419, Final residual = 0.000394262, No Iterations 3
time step continuity errors : sum local = 0.00113018, global = -1.53483e-17, cumulative = -2.57266e-16
ExecutionTime = 0.21 s  ClockTime = 1 s

Time = 60

smoothSolver:  Solving for Ux, Initial residual = 0.00268593, Final residual = 0.000235048, No Iterations 4
smoothSolver:  Solving for Uy, Initial residual = 0.00330015, Final residual = 0.000184436, No Iterations 4
GAMG:  Solving for p, Initial residual = 0.00765163, Final residual = 0.000727828, No Iterations 2
time step continuity errors : sum local = 0.00214359, global = -1.03169e-17, cumulative = -2.67583e-16
ExecutionTime = 0.22 s  ClockTime = 1 s

Time = 61

smoothSolver:  Solving for Ux, Initial residual = 0.00264613, Final residual = 0.000246437, No Iterations 4
smoothSolver:  Solving for Uy, Initial residual = 0.00309284, Final residual = 0.000182507, No Iterations 4
GAMG:  Solving for p, Initial residual = 0.00772897, Final residual = 0.000381223, No Iterations 3
time step continuity errors : sum local = 0.00110693, global = 3.3983e-17, cumulative = -2.336e-16
ExecutionTime = 0.22 s  ClockTime = 1 s

Time = 62

smoothSolver:  Solving for Ux, Initial residual = 0.00259282, Final residual = 0.000240731, No Iterations 4
smoothSolver:  Solving for Uy, Initial residual = 0.00286269, Final residual = 0.000164037, No Iterations 4
GAMG:  Solving for p, Initial residual = 0.00671202, Final residual = 0.000655199, No Iterations 2
time step continuity errors : sum local = 0.00196707, global = 2.13283e-17, cumulative = -2.12272e-16
ExecutionTime = 0.22 s  ClockTime = 1 s

Time = 63

smoothSolver:  Solving for Ux, Initial residual = 0.0025203, Final residual = 0.000247128, No Iterations 4
smoothSolver:  Solving for Uy, Initial residual = 0.00270602, Final residual = 0.000162222, No Iterations 4
GAMG:  Solving for p, Initial residual = 0.006827, Final residual = 0.000350545, No Iterations 3
time step continuity errors : sum local = 0.00102855, global = 1.84823e-17, cumulative = -1.9379e-16
ExecutionTime = 0.23 s  ClockTime = 1 s

Time = 64

smoothSolver:  Solving for Ux, Initial residual = 0.00242387, Final residual = 0.00023236, No Iterations 4
smoothSolver:  Solving for Uy, Initial residual = 0.00251625, Final residual = 0.000143786, No Iterations 4
GAMG:  Solving for p, Initial residual = 0.00595384, Final residual = 0.000251126, No Iterations 3
time step continuity errors : sum local = 0.000726902, global = -2.29292e-17, cumulative = -2.16719e-16
ExecutionTime = 0.23 s  ClockTime = 1 s

Time = 65

smoothSolver:  Solving for Ux, Initial residual = 0.00229208, Final residual = 0.000223716, No Iterations 4
smoothSolver:  Solving for Uy, Initial residual = 0.00238513, Final residual = 0.000139009, No Iterations 4
GAMG:  Solving for p, Initial residual = 0.00566334, Final residual = 0.000503225, No Iterations 2
time step continuity errors : sum local = 0.00150843, global = 5.54129e-17, cumulative = -1.61306e-16
ExecutionTime = 0.23 s  ClockTime = 1 s

Time = 66

smoothSolver:  Solving for Ux, Initial residual = 0.00220714, Final residual = 0.000131877, No Iterations 5
smoothSolver:  Solving for Uy, Initial residual = 0.00225664, Final residual = 0.000136108, No Iterations 4
GAMG:  Solving for p, Initial residual = 0.00583949, Final residual = 0.000275154, No Iterations 3
time step continuity errors : sum local = 0.000803823, global = -4.99241e-17, cumulative = -2.1123e-16
ExecutionTime = 0.24 s  ClockTime = 1 s

Time = 67

smoothSolver:  Solving for Ux, Initial residual = 0.00205691, Final residual = 0.000195061, No Iterations 4
smoothSolver:  Solving for Uy, Initial residual = 0.00214993, Final residual = 0.00013147, No Iterations 4
GAMG:  Solving for p, Initial residual = 0.00494223, Final residual = 0.000406448, No Iterations 2
time step continuity errors : sum local = 0.00123639, global = -4.76033e-18, cumulative = -2.1599e-16
ExecutionTime = 0.24 s  ClockTime = 1 s

Time = 68

smoothSolver:  Solving for Ux, Initial residual = 0.0019409, Final residual = 0.000189355, No Iterations 4
smoothSolver:  Solving for Uy, Initial residual = 0.00203379, Final residual = 0.000127324, No Iterations 4
GAMG:  Solving for p, Initial residual = 0.00493534, Final residual = 0.000227125, No Iterations 3
time step continuity errors : sum local = 0.000664958, global = 1.35525e-18, cumulative = -2.14635e-16
ExecutionTime = 0.25 s  ClockTime = 1 s

Time = 69

smoothSolver:  Solving for Ux, Initial residual = 0.00178354, Final residual = 0.000167202, No Iterations 4
smoothSolver:  Solving for Uy, Initial residual = 0.00193207, Final residual = 0.000119632, No Iterations 4
GAMG:  Solving for p, Initial residual = 0.00441901, Final residual = 0.000343046, No Iterations 2
time step continuity errors : sum local = 0.00104398, global = 4.05559e-17, cumulative = -1.74079e-16
ExecutionTime = 0.25 s  ClockTime = 1 s

Time = 70

smoothSolver:  Solving for Ux, Initial residual = 0.00169003, Final residual = 0.000157297, No Iterations 4
smoothSolver:  Solving for Uy, Initial residual = 0.001833, Final residual = 0.00011454, No Iterations 4
GAMG:  Solving for p, Initial residual = 0.0043402, Final residual = 0.00019639, No Iterations 3
time step continuity errors : sum local = 0.000573069, global = -5.53113e-17, cumulative = -2.2939e-16
ExecutionTime = 0.25 s  ClockTime = 1 s

Time = 71

smoothSolver:  Solving for Ux, Initial residual = 0.00155163, Final residual = 0.00013617, No Iterations 4
smoothSolver:  Solving for Uy, Initial residual = 0.00175313, Final residual = 0.000104485, No Iterations 4
GAMG:  Solving for p, Initial residual = 0.00395234, Final residual = 0.000309684, No Iterations 2
time step continuity errors : sum local = 0.000935314, global = -3.23058e-17, cumulative = -2.61696e-16
ExecutionTime = 0.26 s  ClockTime = 1 s

Time = 72

smoothSolver:  Solving for Ux, Initial residual = 0.00147916, Final residual = 0.000126976, No Iterations 4
smoothSolver:  Solving for Uy, Initial residual = 0.00166872, Final residual = 9.89517e-05, No Iterations 4
GAMG:  Solving for p, Initial residual = 0.00395393, Final residual = 0.0001757, No Iterations 3
time step continuity errors : sum local = 0.000510353, global = 2.69187e-17, cumulative = -2.34777e-16
ExecutionTime = 0.26 s  ClockTime = 1 s

Time = 73

smoothSolver:  Solving for Ux, Initial residual = 0.00138864, Final residual = 0.000111962, No Iterations 4
smoothSolver:  Solving for Uy, Initial residual = 0.00159025, Final residual = 8.70267e-05, No Iterations 4
GAMG:  Solving for p, Initial residual = 0.00364736, Final residual = 0.000287209, No Iterations 2
time step continuity errors : sum local = 0.000862581, global = 3.23736e-17, cumulative = -2.02404e-16
ExecutionTime = 0.26 s  ClockTime = 1 s

Time = 74

smoothSolver:  Solving for Ux, Initial residual = 0.00134145, Final residual = 0.00010557, No Iterations 4
smoothSolver:  Solving for Uy, Initial residual = 0.00152579, Final residual = 8.23185e-05, No Iterations 4
GAMG:  Solving for p, Initial residual = 0.0036555, Final residual = 0.000324341, No Iterations 2
time step continuity errors : sum local = 0.00100528, global = -1.30104e-17, cumulative = -2.15414e-16
ExecutionTime = 0.27 s  ClockTime = 1 s

Time = 75

smoothSolver:  Solving for Ux, Initial residual = 0.0012808, Final residual = 9.87113e-05, No Iterations 4
smoothSolver:  Solving for Uy, Initial residual = 0.00146381, Final residual = 0.000145876, No Iterations 3
GAMG:  Solving for p, Initial residual = 0.00344167, Final residual = 0.000164345, No Iterations 3
time step continuity errors : sum local = 0.000489878, global = -2.07015e-17, cumulative = -2.36116e-16
ExecutionTime = 0.27 s  ClockTime = 1 s

Time = 76

smoothSolver:  Solving for Ux, Initial residual = 0.0012164, Final residual = 9.0009e-05, No Iterations 4
smoothSolver:  Solving for Uy, Initial residual = 0.00140053, Final residual = 0.000129158, No Iterations 3
GAMG:  Solving for p, Initial residual = 0.00319761, Final residual = 0.000252795, No Iterations 2
time step continuity errors : sum local = 0.000776863, global = -3.21873e-19, cumulative = -2.36438e-16
ExecutionTime = 0.27 s  ClockTime = 1 s

Time = 77

smoothSolver:  Solving for Ux, Initial residual = 0.00117114, Final residual = 8.73444e-05, No Iterations 4
smoothSolver:  Solving for Uy, Initial residual = 0.00136332, Final residual = 0.000127386, No Iterations 3
GAMG:  Solving for p, Initial residual = 0.00317199, Final residual = 0.00014556, No Iterations 3
time step continuity errors : sum local = 0.000428946, global = -1.30104e-17, cumulative = -2.49448e-16
ExecutionTime = 0.28 s  ClockTime = 1 s

Time = 78

smoothSolver:  Solving for Ux, Initial residual = 0.00110636, Final residual = 8.07575e-05, No Iterations 4
smoothSolver:  Solving for Uy, Initial residual = 0.00129796, Final residual = 0.000111426, No Iterations 3
GAMG:  Solving for p, Initial residual = 0.00292397, Final residual = 0.000244577, No Iterations 2
time step continuity errors : sum local = 0.00074684, global = 5.8242e-17, cumulative = -1.91206e-16
ExecutionTime = 0.28 s  ClockTime = 1 s

Time = 79

smoothSolver:  Solving for Ux, Initial residual = 0.0010698, Final residual = 8.01439e-05, No Iterations 4
smoothSolver:  Solving for Uy, Initial residual = 0.00125833, Final residual = 0.00011116, No Iterations 3
GAMG:  Solving for p, Initial residual = 0.00289935, Final residual = 0.000271989, No Iterations 2
time step continuity errors : sum local = 0.000864497, global = 5.9953e-17, cumulative = -1.31253e-16
ExecutionTime = 0.28 s  ClockTime = 1 s

Time = 80

smoothSolver:  Solving for Ux, Initial residual = 0.00101924, Final residual = 7.80385e-05, No Iterations 4
smoothSolver:  Solving for Uy, Initial residual = 0.0012116, Final residual = 0.000105152, No Iterations 3
GAMG:  Solving for p, Initial residual = 0.00276397, Final residual = 0.000147543, No Iterations 3
time step continuity errors : sum local = 0.000449897, global = -1.67713e-17, cumulative = -1.48024e-16
ExecutionTime = 0.28 s  ClockTime = 1 s

Time = 81

smoothSolver:  Solving for Ux, Initial residual = 0.000950932, Final residual = 7.13786e-05, No Iterations 4
smoothSolver:  Solving for Uy, Initial residual = 0.00118785, Final residual = 0.000101496, No Iterations 3
GAMG:  Solving for p, Initial residual = 0.00255083, Final residual = 0.000228334, No Iterations 2
time step continuity errors : sum local = 0.000719712, global = -4.83825e-17, cumulative = -1.96407e-16
ExecutionTime = 0.29 s  ClockTime = 1 s

Time = 82

smoothSolver:  Solving for Ux, Initial residual = 0.000925367, Final residual = 7.31906e-05, No Iterations 4
smoothSolver:  Solving for Uy, Initial residual = 0.00114336, Final residual = 0.000103367, No Iterations 3
GAMG:  Solving for p, Initial residual = 0.00252985, Final residual = 0.000133995, No Iterations 3
time step continuity errors : sum local = 0.000405451, global = -2.19043e-17, cumulative = -2.18311e-16
ExecutionTime = 0.29 s  ClockTime = 1 s

Time = 83

smoothSolver:  Solving for Ux, Initial residual = 0.000868088, Final residual = 6.86251e-05, No Iterations 4
smoothSolver:  Solving for Uy, Initial residual = 0.00112024, Final residual = 9.95408e-05, No Iterations 3
GAMG:  Solving for p, Initial residual = 0.0023055, Final residual = 0.000217898, No Iterations 2
time step continuity errors : sum local = 0.000684716, global = -1.74658e-17, cumulative = -2.35777e-16
ExecutionTime = 0.29 s  ClockTime = 1 s

Time = 84

smoothSolver:  Solving for Ux, Initial residual = 0.000849636, Final residual = 7.08957e-05, No Iterations 4
smoothSolver:  Solving for Uy, Initial residual = 0.00107864, Final residual = 0.000100039, No Iterations 3
GAMG:  Solving for p, Initial residual = 0.00231127, Final residual = 0.000126787, No Iterations 3
time step continuity errors : sum local = 0.000384154, global = -2.25311e-18, cumulative = -2.3803e-16
ExecutionTime = 0.3 s  ClockTime = 1 s

Time = 85

smoothSolver:  Solving for Ux, Initial residual = 0.000815418, Final residual = 6.78499e-05, No Iterations 4
smoothSolver:  Solving for Uy, Initial residual = 0.00104818, Final residual = 9.43419e-05, No Iterations 3
GAMG:  Solving for p, Initial residual = 0.00208961, Final residual = 0.000201564, No Iterations 2
time step continuity errors : sum local = 0.000636907, global = 7.72494e-17, cumulative = -1.60781e-16
ExecutionTime = 0.3 s  ClockTime = 1 s

Time = 86

smoothSolver:  Solving for Ux, Initial residual = 0.000801862, Final residual = 7.01792e-05, No Iterations 4
smoothSolver:  Solving for Uy, Initial residual = 0.00101497, Final residual = 9.51801e-05, No Iterations 3
GAMG:  Solving for p, Initial residual = 0.00210636, Final residual = 0.000119316, No Iterations 3
time step continuity errors : sum local = 0.000363105, global = -6.21722e-18, cumulative = -1.66998e-16
ExecutionTime = 0.3 s  ClockTime = 1 s

Time = 87

smoothSolver:  Solving for Ux, Initial residual = 0.000783192, Final residual = 6.7286e-05, No Iterations 4
smoothSolver:  Solving for Uy, Initial residual = 0.000979184, Final residual = 8.91131e-05, No Iterations 3
GAMG:  Solving for p, Initial residual = 0.00189977, Final residual = 0.000184701, No Iterations 2
time step continuity errors : sum local = 0.000587934, global = 6.76949e-17, cumulative = -9.9303e-17
ExecutionTime = 0.3 s  ClockTime = 1 s

Time = 88

smoothSolver:  Solving for Ux, Initial residual = 0.000769757, Final residual = 6.90896e-05, No Iterations 4
smoothSolver:  Solving for Uy, Initial residual = 0.000947562, Final residual = 9.00829e-05, No Iterations 3
GAMG:  Solving for p, Initial residual = 0.00192225, Final residual = 0.000112278, No Iterations 3
time step continuity errors : sum local = 0.000342991, global = 1.32984e-17, cumulative = -8.60046e-17
ExecutionTime = 0.31 s  ClockTime = 1 s

Time = 89

smoothSolver:  Solving for Ux, Initial residual = 0.000750746, Final residual = 6.56567e-05, No Iterations 4
smoothSolver:  Solving for Uy, Initial residual = 0.00090894, Final residual = 8.44919e-05, No Iterations 3
GAMG:  Solving for p, Initial residual = 0.00173332, Final residual = 0.0001694, No Iterations 2
time step continuity errors : sum local = 0.000542601, global = 1.89735e-18, cumulative = -8.41072e-17
ExecutionTime = 0.31 s  ClockTime = 1 s

Time = 90

smoothSolver:  Solving for Ux, Initial residual = 0.000735841, Final residual = 6.65902e-05, No Iterations 4
smoothSolver:  Solving for Uy, Initial residual = 0.000878487, Final residual = 8.5273e-05, No Iterations 3
GAMG:  Solving for p, Initial residual = 0.00175211, Final residual = 0.000105023, No Iterations 3
time step continuity errors : sum local = 0.00032196, global = 1.8118e-17, cumulative = -6.59892e-17
ExecutionTime = 0.31 s  ClockTime = 1 s

Time = 91

smoothSolver:  Solving for Ux, Initial residual = 0.000714398, Final residual = 6.27876e-05, No Iterations 4
smoothSolver:  Solving for Uy, Initial residual = 0.000846392, Final residual = 8.05274e-05, No Iterations 3
GAMG:  Solving for p, Initial residual = 0.0015836, Final residual = 0.000155977, No Iterations 2
time step continuity errors : sum local = 0.000502263, global = -2.77911e-17, cumulative = -9.37804e-17
ExecutionTime = 0.32 s  ClockTime = 1 s

Time = 92

smoothSolver:  Solving for Ux, Initial residual = 0.000695401, Final residual = 6.29903e-05, No Iterations 4
smoothSolver:  Solving for Uy, Initial residual = 0.000820304, Final residual = 8.11594e-05, No Iterations 3
GAMG:  Solving for p, Initial residual = 0.00160327, Final residual = 9.8267e-05, No Iterations 3
time step continuity errors : sum local = 0.00030203, global = -2.18111e-17, cumulative = -1.15591e-16
ExecutionTime = 0.32 s  ClockTime = 1 s

Time = 93

smoothSolver:  Solving for Ux, Initial residual = 0.000674229, Final residual = 5.91273e-05, No Iterations 4
smoothSolver:  Solving for Uy, Initial residual = 0.000789042, Final residual = 7.6212e-05, No Iterations 3
GAMG:  Solving for p, Initial residual = 0.00145273, Final residual = 0.000144638, No Iterations 2
time step continuity errors : sum local = 0.000467428, global = -1.2985e-17, cumulative = -1.28576e-16
ExecutionTime = 0.32 s  ClockTime = 1 s

Time = 94

smoothSolver:  Solving for Ux, Initial residual = 0.00065427, Final residual = 5.89267e-05, No Iterations 4
smoothSolver:  Solving for Uy, Initial residual = 0.000767292, Final residual = 7.66061e-05, No Iterations 3
GAMG:  Solving for p, Initial residual = 0.00147139, Final residual = 9.23177e-05, No Iterations 3
time step continuity errors : sum local = 0.000284318, global = 6.23332e-17, cumulative = -6.62433e-17
ExecutionTime = 0.33 s  ClockTime = 1 s

Time = 95

smoothSolver:  Solving for Ux, Initial residual = 0.000637267, Final residual = 5.55586e-05, No Iterations 4
smoothSolver:  Solving for Uy, Initial residual = 0.000735992, Final residual = 7.13127e-05, No Iterations 3
GAMG:  Solving for p, Initial residual = 0.00133859, Final residual = 9.18125e-05, No Iterations 3
time step continuity errors : sum local = 0.00027515, global = 6.22485e-17, cumulative = -3.99486e-18
ExecutionTime = 0.33 s  ClockTime = 1 s

Time = 96

smoothSolver:  Solving for Ux, Initial residual = 0.0006194, Final residual = 5.46146e-05, No Iterations 4
smoothSolver:  Solving for Uy, Initial residual = 0.000716437, Final residual = 7.03447e-05, No Iterations 3
GAMG:  Solving for p, Initial residual = 0.00131692, Final residual = 8.98328e-05, No Iterations 3
time step continuity errors : sum local = 0.000267685, global = 1.22312e-17, cumulative = 8.2363e-18
ExecutionTime = 0.33 s  ClockTime = 1 s

Time = 97

smoothSolver:  Solving for Ux, Initial residual = 0.000604823, Final residual = 5.31927e-05, No Iterations 4
smoothSolver:  Solving for Uy, Initial residual = 0.000691299, Final residual = 6.76994e-05, No Iterations 3
GAMG:  Solving for p, Initial residual = 0.0012735, Final residual = 8.67339e-05, No Iterations 3
time step continuity errors : sum local = 0.000257923, global = -3.35594e-17, cumulative = -2.53232e-17
ExecutionTime = 0.34 s  ClockTime = 1 s

Time = 98

smoothSolver:  Solving for Ux, Initial residual = 0.000590439, Final residual = 5.18504e-05, No Iterations 4
smoothSolver:  Solving for Uy, Initial residual = 0.000669233, Final residual = 6.51298e-05, No Iterations 3
GAMG:  Solving for p, Initial residual = 0.00123279, Final residual = 8.40186e-05, No Iterations 3
time step continuity errors : sum local = 0.000249709, global = 4.2106e-17, cumulative = 1.67829e-17
ExecutionTime = 0.34 s  ClockTime = 1 s

Time = 99

smoothSolver:  Solving for Ux, Initial residual = 0.000576531, Final residual = 5.05897e-05, No Iterations 4
smoothSolver:  Solving for Uy, Initial residual = 0.000648945, Final residual = 6.27171e-05, No Iterations 3
GAMG:  Solving for p, Initial residual = 0.0011961, Final residual = 8.18337e-05, No Iterations 3
time step continuity errors : sum local = 0.000243289, global = 2.66815e-18, cumulative = 1.9451e-17
ExecutionTime = 0.34 s  ClockTime = 1 s

Time = 100

smoothSolver:  Solving for Ux, Initial residual = 0.000563129, Final residual = 4.93803e-05, No Iterations 4
smoothSolver:  Solving for Uy, Initial residual = 0.000629929, Final residual = 6.04558e-05, No Iterations 3
GAMG:  Solving for p, Initial residual = 0.00116242, Final residual = 7.99606e-05, No Iterations 3
time step continuity errors : sum local = 0.000237903, global = -3.43302e-17, cumulative = -1.48792e-17
ExecutionTime = 0.36 s  ClockTime = 1 s

Time = 101

smoothSolver:  Solving for Ux, Initial residual = 0.000550183, Final residual = 4.82063e-05, No Iterations 4
smoothSolver:  Solving for Uy, Initial residual = 0.000612527, Final residual = 5.84229e-05, No Iterations 3
GAMG:  Solving for p, Initial residual = 0.00113062, Final residual = 7.82604e-05, No Iterations 3
time step continuity errors : sum local = 0.000233072, global = 1.14434e-17, cumulative = -3.43582e-18
ExecutionTime = 0.36 s  ClockTime = 1 s

Time = 102

smoothSolver:  Solving for Ux, Initial residual = 0.000537694, Final residual = 4.70818e-05, No Iterations 4
smoothSolver:  Solving for Uy, Initial residual = 0.000597365, Final residual = 5.67066e-05, No Iterations 3
GAMG:  Solving for p, Initial residual = 0.00110029, Final residual = 7.66653e-05, No Iterations 3
time step continuity errors : sum local = 0.000228562, global = 9.68582e-18, cumulative = 6.25e-18
ExecutionTime = 0.36 s  ClockTime = 1 s

Time = 103

smoothSolver:  Solving for Ux, Initial residual = 0.000525718, Final residual = 4.60296e-05, No Iterations 4
smoothSolver:  Solving for Uy, Initial residual = 0.000584245, Final residual = 5.53031e-05, No Iterations 3
GAMG:  Solving for p, Initial residual = 0.00107103, Final residual = 7.51451e-05, No Iterations 3
time step continuity errors : sum local = 0.00022427, global = 3.47622e-17, cumulative = 4.10122e-17
ExecutionTime = 0.37 s  ClockTime = 1 s

Time = 104

smoothSolver:  Solving for Ux, Initial residual = 0.000514322, Final residual = 4.50641e-05, No Iterations 4
smoothSolver:  Solving for Uy, Initial residual = 0.000572473, Final residual = 5.41184e-05, No Iterations 3
GAMG:  Solving for p, Initial residual = 0.00104312, Final residual = 7.36761e-05, No Iterations 3
time step continuity errors : sum local = 0.000220122, global = 2.60886e-17, cumulative = 6.71009e-17
ExecutionTime = 0.37 s  ClockTime = 1 s

Time = 105

smoothSolver:  Solving for Ux, Initial residual = 0.000503452, Final residual = 4.41678e-05, No Iterations 4
smoothSolver:  Solving for Uy, Initial residual = 0.000561596, Final residual = 5.30925e-05, No Iterations 3
GAMG:  Solving for p, Initial residual = 0.0010158, Final residual = 7.22448e-05, No Iterations 3
time step continuity errors : sum local = 0.000216076, global = -1.06345e-17, cumulative = 5.64664e-17
ExecutionTime = 0.37 s  ClockTime = 1 s

Time = 106

smoothSolver:  Solving for Ux, Initial residual = 0.000493106, Final residual = 4.33146e-05, No Iterations 4
smoothSolver:  Solving for Uy, Initial residual = 0.000551432, Final residual = 5.21704e-05, No Iterations 3
GAMG:  Solving for p, Initial residual = 0.000989361, Final residual = 7.0843e-05, No Iterations 3
time step continuity errors : sum local = 0.000212108, global = -1.42767e-17, cumulative = 4.21896e-17
ExecutionTime = 0.38 s  ClockTime = 1 s

Time = 107

smoothSolver:  Solving for Ux, Initial residual = 0.000483316, Final residual = 4.24977e-05, No Iterations 4
smoothSolver:  Solving for Uy, Initial residual = 0.000541822, Final residual = 5.13167e-05, No Iterations 3
GAMG:  Solving for p, Initial residual = 0.000963871, Final residual = 6.94677e-05, No Iterations 3
time step continuity errors : sum local = 0.000208211, global = 2.669e-17, cumulative = 6.88796e-17
ExecutionTime = 0.38 s  ClockTime = 1 s

Time = 108

smoothSolver:  Solving for Ux, Initial residual = 0.000474025, Final residual = 4.17224e-05, No Iterations 4
smoothSolver:  Solving for Uy, Initial residual = 0.000532689, Final residual = 5.05095e-05, No Iterations 3
GAMG:  Solving for p, Initial residual = 0.000939556, Final residual = 6.81349e-05, No Iterations 3
time step continuity errors : sum local = 0.000204453, global = 1.43699e-17, cumulative = 8.32495e-17
ExecutionTime = 0.38 s  ClockTime = 1 s

Time = 109

smoothSolver:  Solving for Ux, Initial residual = 0.000465098, Final residual = 4.09638e-05, No Iterations 4
smoothSolver:  Solving for Uy, Initial residual = 0.000523735, Final residual = 4.97295e-05, No Iterations 3
GAMG:  Solving for p, Initial residual = 0.000916116, Final residual = 6.68306e-05, No Iterations 3
time step continuity errors : sum local = 0.000200756, global = 3.26955e-18, cumulative = 8.65191e-17
ExecutionTime = 0.39 s  ClockTime = 1 s

Time = 110

smoothSolver:  Solving for Ux, Initial residual = 0.000456458, Final residual = 4.02316e-05, No Iterations 4
smoothSolver:  Solving for Uy, Initial residual = 0.000514894, Final residual = 4.8966e-05, No Iterations 3
GAMG:  Solving for p, Initial residual = 0.000893535, Final residual = 6.55526e-05, No Iterations 3
time step continuity errors : sum local = 0.000197119, global = -1.84568e-17, cumulative = 6.80622e-17
ExecutionTime = 0.39 s  ClockTime = 1 s

Time = 111

smoothSolver:  Solving for Ux, Initial residual = 0.000448132, Final residual = 3.95321e-05, No Iterations 4
smoothSolver:  Solving for Uy, Initial residual = 0.000506101, Final residual = 4.82091e-05, No Iterations 3
GAMG:  Solving for p, Initial residual = 0.000871649, Final residual = 6.43067e-05, No Iterations 3
time step continuity errors : sum local = 0.000193567, global = 2.76472e-17, cumulative = 9.57094e-17
ExecutionTime = 0.39 s  ClockTime = 1 s

Time = 112

smoothSolver:  Solving for Ux, Initial residual = 0.000440169, Final residual = 3.88655e-05, No Iterations 4
smoothSolver:  Solving for Uy, Initial residual = 0.000497352, Final residual = 4.74521e-05, No Iterations 3
GAMG:  Solving for p, Initial residual = 0.000850701, Final residual = 6.30977e-05, No Iterations 3
time step continuity errors : sum local = 0.000190115, global = -1.95664e-18, cumulative = 9.37527e-17
ExecutionTime = 0.4 s  ClockTime = 1 s

Time = 113

smoothSolver:  Solving for Ux, Initial residual = 0.000432544, Final residual = 3.82343e-05, No Iterations 4
smoothSolver:  Solving for Uy, Initial residual = 0.000488627, Final residual = 4.66921e-05, No Iterations 3
GAMG:  Solving for p, Initial residual = 0.000830594, Final residual = 6.1929e-05, No Iterations 3
time step continuity errors : sum local = 0.000186772, global = 2.5682e-17, cumulative = 1.19435e-16
ExecutionTime = 0.4 s  ClockTime = 1 s

Time = 114

smoothSolver:  Solving for Ux, Initial residual = 0.000425271, Final residual = 3.76357e-05, No Iterations 4
smoothSolver:  Solving for Uy, Initial residual = 0.000479892, Final residual = 4.59293e-05, No Iterations 3
GAMG:  Solving for p, Initial residual = 0.000811271, Final residual = 6.08032e-05, No Iterations 3
time step continuity errors : sum local = 0.000183546, global = 1.32179e-17, cumulative = 1.32653e-16
ExecutionTime = 0.4 s  ClockTime = 1 s

Time = 115

smoothSolver:  Solving for Ux, Initial residual = 0.000418293, Final residual = 3.70652e-05, No Iterations 4
smoothSolver:  Solving for Uy, Initial residual = 0.000471175, Final residual = 4.5166e-05, No Iterations 3
GAMG:  Solving for p, Initial residual = 0.000792808, Final residual = 5.97199e-05, No Iterations 3
time step continuity errors : sum local = 0.000180434, global = 1.15641e-17, cumulative = 1.44217e-16
ExecutionTime = 0.41 s  ClockTime = 1 s

Time = 116

smoothSolver:  Solving for Ux, Initial residual = 0.000411589, Final residual = 3.65169e-05, No Iterations 4
smoothSolver:  Solving for Uy, Initial residual = 0.000462519, Final residual = 4.44071e-05, No Iterations 3
GAMG:  Solving for p, Initial residual = 0.000775198, Final residual = 5.86767e-05, No Iterations 3
time step continuity errors : sum local = 0.000177431, global = 3.33731e-17, cumulative = 1.7759e-16
ExecutionTime = 0.41 s  ClockTime = 1 s

Time = 117

smoothSolver:  Solving for Ux, Initial residual = 0.000405113, Final residual = 3.59876e-05, No Iterations 4
smoothSolver:  Solving for Uy, Initial residual = 0.000453998, Final residual = 4.36578e-05, No Iterations 3
GAMG:  Solving for p, Initial residual = 0.000758453, Final residual = 5.7673e-05, No Iterations 3
time step continuity errors : sum local = 0.000174535, global = 6.24581e-17, cumulative = 2.40048e-16
ExecutionTime = 0.41 s  ClockTime = 1 s

Time = 118

smoothSolver:  Solving for Ux, Initial residual = 0.000398845, Final residual = 3.5473e-05, No Iterations 4
smoothSolver:  Solving for Uy, Initial residual = 0.000445667, Final residual = 4.29246e-05, No Iterations 3
GAMG:  Solving for p, Initial residual = 0.000742538, Final residual = 5.67063e-05, No Iterations 3
time step continuity errors : sum local = 0.000171739, global = 1.9685e-17, cumulative = 2.59733e-16
ExecutionTime = 0.42 s  ClockTime = 1 s

Time = 119

smoothSolver:  Solving for Ux, Initial residual = 0.000392757, Final residual = 3.49709e-05, No Iterations 4
smoothSolver:  Solving for Uy, Initial residual = 0.000437574, Final residual = 4.22104e-05, No Iterations 3
GAMG:  Solving for p, Initial residual = 0.000727495, Final residual = 5.57747e-05, No Iterations 3
time step continuity errors : sum local = 0.000169038, global = 1.21549e-17, cumulative = 2.71888e-16
ExecutionTime = 0.42 s  ClockTime = 1 s

Time = 120

smoothSolver:  Solving for Ux, Initial residual = 0.000386837, Final residual = 3.44795e-05, No Iterations 4
smoothSolver:  Solving for Uy, Initial residual = 0.000429765, Final residual = 4.15172e-05, No Iterations 3
GAMG:  Solving for p, Initial residual = 0.000713205, Final residual = 5.48754e-05, No Iterations 3
time step continuity errors : sum local = 0.000166425, global = -9.15219e-18, cumulative = 2.62736e-16
ExecutionTime = 0.42 s  ClockTime = 1 s

Time = 121

smoothSolver:  Solving for Ux, Initial residual = 0.000381088, Final residual = 3.39978e-05, No Iterations 4
smoothSolver:  Solving for Uy, Initial residual = 0.000422242, Final residual = 4.08504e-05, No Iterations 3
GAMG:  Solving for p, Initial residual = 0.000699715, Final residual = 5.40061e-05, No Iterations 3
time step continuity errors : sum local = 0.000163894, global = 1.01432e-17, cumulative = 2.72879e-16
ExecutionTime = 0.42 s  ClockTime = 1 s

Time = 122

smoothSolver:  Solving for Ux, Initial residual = 0.000375491, Final residual = 3.35249e-05, No Iterations 4
smoothSolver:  Solving for Uy, Initial residual = 0.00041498, Final residual = 4.02089e-05, No Iterations 3
GAMG:  Solving for p, Initial residual = 0.000686831, Final residual = 5.31652e-05, No Iterations 3
time step continuity errors : sum local = 0.000161441, global = 1.42302e-18, cumulative = 2.74302e-16
ExecutionTime = 0.42 s  ClockTime = 1 s

Time = 123

smoothSolver:  Solving for Ux, Initial residual = 0.000370026, Final residual = 3.30601e-05, No Iterations 4
smoothSolver:  Solving for Uy, Initial residual = 0.000407982, Final residual = 3.95876e-05, No Iterations 3
GAMG:  Solving for p, Initial residual = 0.00067446, Final residual = 5.23514e-05, No Iterations 3
time step continuity errors : sum local = 0.000159064, global = -9.04208e-18, cumulative = 2.6526e-16
ExecutionTime = 0.43 s  ClockTime = 1 s

Time = 124

smoothSolver:  Solving for Ux, Initial residual = 0.00036469, Final residual = 3.26031e-05, No Iterations 4
smoothSolver:  Solving for Uy, Initial residual = 0.000401245, Final residual = 3.89869e-05, No Iterations 3
GAMG:  Solving for p, Initial residual = 0.000662599, Final residual = 5.15623e-05, No Iterations 3
time step continuity errors : sum local = 0.000156755, global = 4.54073e-17, cumulative = 3.10667e-16
ExecutionTime = 0.43 s  ClockTime = 1 s

Time = 125

smoothSolver:  Solving for Ux, Initial residual = 0.000359476, Final residual = 3.21534e-05, No Iterations 4
smoothSolver:  Solving for Uy, Initial residual = 0.00039473, Final residual = 3.84052e-05, No Iterations 3
GAMG:  Solving for p, Initial residual = 0.000651211, Final residual = 5.07955e-05, No Iterations 3
time step continuity errors : sum local = 0.00015451, global = -1.1922e-17, cumulative = 2.98745e-16
ExecutionTime = 0.43 s  ClockTime = 1 s

Time = 126

smoothSolver:  Solving for Ux, Initial residual = 0.000354384, Final residual = 3.17112e-05, No Iterations 4
smoothSolver:  Solving for Uy, Initial residual = 0.000388411, Final residual = 3.78403e-05, No Iterations 3
GAMG:  Solving for p, Initial residual = 0.00064015, Final residual = 5.00493e-05, No Iterations 3
time step continuity errors : sum local = 0.000152323, global = -1.65002e-17, cumulative = 2.82245e-16
ExecutionTime = 0.44 s  ClockTime = 1 s

Time = 127

smoothSolver:  Solving for Ux, Initial residual = 0.000349407, Final residual = 3.12766e-05, No Iterations 4
smoothSolver:  Solving for Uy, Initial residual = 0.000382296, Final residual = 3.72922e-05, No Iterations 3
GAMG:  Solving for p, Initial residual = 0.000629417, Final residual = 4.93228e-05, No Iterations 3
time step continuity errors : sum local = 0.000150191, global = 2.71855e-17, cumulative = 3.09431e-16
ExecutionTime = 0.44 s  ClockTime = 1 s

Time = 128

smoothSolver:  Solving for Ux, Initial residual = 0.000344531, Final residual = 3.08494e-05, No Iterations 4
smoothSolver:  Solving for Uy, Initial residual = 0.000376362, Final residual = 3.67584e-05, No Iterations 3
GAMG:  Solving for p, Initial residual = 0.000618962, Final residual = 4.86147e-05, No Iterations 3
time step continuity errors : sum local = 0.00014811, global = -5.22513e-17, cumulative = 2.57179e-16
ExecutionTime = 0.44 s  ClockTime = 1 s

Time = 129

smoothSolver:  Solving for Ux, Initial residual = 0.00033975, Final residual = 3.04299e-05, No Iterations 4
smoothSolver:  Solving for Uy, Initial residual = 0.0003706, Final residual = 3.62379e-05, No Iterations 3
GAMG:  Solving for p, Initial residual = 0.000608791, Final residual = 4.79238e-05, No Iterations 3
time step continuity errors : sum local = 0.000146078, global = -5.15377e-17, cumulative = 2.05642e-16
ExecutionTime = 0.45 s  ClockTime = 1 s

Time = 130

smoothSolver:  Solving for Ux, Initial residual = 0.000335062, Final residual = 3.00181e-05, No Iterations 4
smoothSolver:  Solving for Uy, Initial residual = 0.000364991, Final residual = 3.573e-05, No Iterations 3
GAMG:  Solving for p, Initial residual = 0.000598877, Final residual = 4.72488e-05, No Iterations 3
time step continuity errors : sum local = 0.00014409, global = -1.88126e-17, cumulative = 1.86829e-16
ExecutionTime = 0.45 s  ClockTime = 1 s

Time = 131

smoothSolver:  Solving for Ux, Initial residual = 0.000330466, Final residual = 2.96142e-05, No Iterations 4
smoothSolver:  Solving for Uy, Initial residual = 0.000359526, Final residual = 3.52334e-05, No Iterations 3
GAMG:  Solving for p, Initial residual = 0.00058928, Final residual = 4.65889e-05, No Iterations 3
time step continuity errors : sum local = 0.000142143, global = -4.76223e-17, cumulative = 1.39207e-16
ExecutionTime = 0.45 s  ClockTime = 1 s

Time = 132

smoothSolver:  Solving for Ux, Initial residual = 0.000325971, Final residual = 2.92181e-05, No Iterations 4
smoothSolver:  Solving for Uy, Initial residual = 0.000354201, Final residual = 3.47479e-05, No Iterations 3
GAMG:  Solving for p, Initial residual = 0.000579926, Final residual = 4.59434e-05, No Iterations 3
time step continuity errors : sum local = 0.000140237, global = 1.50348e-17, cumulative = 1.54241e-16
ExecutionTime = 0.46 s  ClockTime = 1 s

Time = 133

smoothSolver:  Solving for Ux, Initial residual = 0.000321567, Final residual = 2.88297e-05, No Iterations 4
smoothSolver:  Solving for Uy, Initial residual = 0.00034901, Final residual = 3.42728e-05, No Iterations 3
GAMG:  Solving for p, Initial residual = 0.000570783, Final residual = 4.53126e-05, No Iterations 3
time step continuity errors : sum local = 0.000138373, global = 2.88584e-17, cumulative = 1.831e-16
ExecutionTime = 0.46 s  ClockTime = 1 s

Time = 134

smoothSolver:  Solving for Ux, Initial residual = 0.000317251, Final residual = 2.84492e-05, No Iterations 4
smoothSolver:  Solving for Uy, Initial residual = 0.000343943, Final residual = 3.3808e-05, No Iterations 3
GAMG:  Solving for p, Initial residual = 0.000561847, Final residual = 4.46961e-05, No Iterations 3
time step continuity errors : sum local = 0.000136549, global = 2.32341e-17, cumulative = 2.06334e-16
ExecutionTime = 0.46 s  ClockTime = 1 s

Time = 135

smoothSolver:  Solving for Ux, Initial residual = 0.000313021, Final residual = 2.80763e-05, No Iterations 4
smoothSolver:  Solving for Uy, Initial residual = 0.000338996, Final residual = 3.33533e-05, No Iterations 3
GAMG:  Solving for p, Initial residual = 0.000553154, Final residual = 4.40936e-05, No Iterations 3
time step continuity errors : sum local = 0.000134764, global = -4.03357e-17, cumulative = 1.65998e-16
ExecutionTime = 0.47 s  ClockTime = 1 s

Time = 136

smoothSolver:  Solving for Ux, Initial residual = 0.000308872, Final residual = 2.7711e-05, No Iterations 4
smoothSolver:  Solving for Uy, Initial residual = 0.000334162, Final residual = 3.29087e-05, No Iterations 3
GAMG:  Solving for p, Initial residual = 0.000544681, Final residual = 4.35051e-05, No Iterations 3
time step continuity errors : sum local = 0.00013302, global = -3.32037e-18, cumulative = 1.62678e-16
ExecutionTime = 0.47 s  ClockTime = 1 s

Time = 137

smoothSolver:  Solving for Ux, Initial residual = 0.000304803, Final residual = 2.73534e-05, No Iterations 4
smoothSolver:  Solving for Uy, Initial residual = 0.000329437, Final residual = 3.24739e-05, No Iterations 3
GAMG:  Solving for p, Initial residual = 0.0005364, Final residual = 4.293e-05, No Iterations 3
time step continuity errors : sum local = 0.000131313, global = 2.18196e-17, cumulative = 1.84498e-16
ExecutionTime = 0.47 s  ClockTime = 1 s

Time = 138

smoothSolver:  Solving for Ux, Initial residual = 0.000300815, Final residual = 2.70036e-05, No Iterations 4
smoothSolver:  Solving for Uy, Initial residual = 0.000324817, Final residual = 3.2049e-05, No Iterations 3
GAMG:  Solving for p, Initial residual = 0.000528302, Final residual = 4.23681e-05, No Iterations 3
time step continuity errors : sum local = 0.000129645, global = 2.04982e-18, cumulative = 1.86547e-16
ExecutionTime = 0.48 s  ClockTime = 1 s

Time = 139

smoothSolver:  Solving for Ux, Initial residual = 0.000296906, Final residual = 2.66614e-05, No Iterations 4
smoothSolver:  Solving for Uy, Initial residual = 0.000320299, Final residual = 3.16335e-05, No Iterations 3
GAMG:  Solving for p, Initial residual = 0.000520415, Final residual = 4.18193e-05, No Iterations 3
time step continuity errors : sum local = 0.000128015, global = -6.30193e-18, cumulative = 1.80245e-16
ExecutionTime = 0.48 s  ClockTime = 1 s

Time = 140

smoothSolver:  Solving for Ux, Initial residual = 0.00029307, Final residual = 2.63264e-05, No Iterations 4
smoothSolver:  Solving for Uy, Initial residual = 0.00031588, Final residual = 3.12271e-05, No Iterations 3
GAMG:  Solving for p, Initial residual = 0.000512721, Final residual = 4.12834e-05, No Iterations 3
time step continuity errors : sum local = 0.000126421, global = -2.98579e-17, cumulative = 1.50387e-16
ExecutionTime = 0.48 s  ClockTime = 1 s

Time = 141

smoothSolver:  Solving for Ux, Initial residual = 0.000289313, Final residual = 2.59985e-05, No Iterations 4
smoothSolver:  Solving for Uy, Initial residual = 0.000311557, Final residual = 3.08296e-05, No Iterations 3
GAMG:  Solving for p, Initial residual = 0.000505233, Final residual = 4.07599e-05, No Iterations 3
time step continuity errors : sum local = 0.000124864, global = 3.83367e-17, cumulative = 1.88724e-16
ExecutionTime = 0.49 s  ClockTime = 1 s

Time = 142

smoothSolver:  Solving for Ux, Initial residual = 0.00028563, Final residual = 2.56776e-05, No Iterations 4
smoothSolver:  Solving for Uy, Initial residual = 0.000307326, Final residual = 3.04407e-05, No Iterations 3
GAMG:  Solving for p, Initial residual = 0.000497935, Final residual = 4.02482e-05, No Iterations 3
time step continuity errors : sum local = 0.00012334, global = 4.3978e-17, cumulative = 2.32702e-16
ExecutionTime = 0.49 s  ClockTime = 1 s

Time = 143

smoothSolver:  Solving for Ux, Initial residual = 0.000282022, Final residual = 2.53635e-05, No Iterations 4
smoothSolver:  Solving for Uy, Initial residual = 0.000303183, Final residual = 3.006e-05, No Iterations 3
GAMG:  Solving for p, Initial residual = 0.000490842, Final residual = 3.97475e-05, No Iterations 3
time step continuity errors : sum local = 0.000121848, global = -4.64216e-17, cumulative = 1.86281e-16
ExecutionTime = 0.49 s  ClockTime = 1 s

Time = 144

smoothSolver:  Solving for Ux, Initial residual = 0.000278486, Final residual = 2.50559e-05, No Iterations 4
smoothSolver:  Solving for Uy, Initial residual = 0.000299125, Final residual = 2.96873e-05, No Iterations 3
GAMG:  Solving for p, Initial residual = 0.000483918, Final residual = 3.92578e-05, No Iterations 3
time step continuity errors : sum local = 0.000120388, global = -1.58819e-18, cumulative = 1.84692e-16
ExecutionTime = 0.5 s  ClockTime = 1 s

Time = 145

smoothSolver:  Solving for Ux, Initial residual = 0.000275019, Final residual = 2.47545e-05, No Iterations 4
smoothSolver:  Solving for Uy, Initial residual = 0.000295146, Final residual = 2.93221e-05, No Iterations 3
GAMG:  Solving for p, Initial residual = 0.00047719, Final residual = 3.87782e-05, No Iterations 3
time step continuity errors : sum local = 0.000118957, global = -3.03873e-17, cumulative = 1.54305e-16
ExecutionTime = 0.5 s  ClockTime = 1 s

Time = 146

smoothSolver:  Solving for Ux, Initial residual = 0.000271616, Final residual = 2.44589e-05, No Iterations 4
smoothSolver:  Solving for Uy, Initial residual = 0.000291245, Final residual = 2.89638e-05, No Iterations 3
GAMG:  Solving for p, Initial residual = 0.000470624, Final residual = 3.83083e-05, No Iterations 3
time step continuity errors : sum local = 0.000117554, global = -5.00639e-17, cumulative = 1.04241e-16
ExecutionTime = 0.5 s  ClockTime = 1 s

Time = 147

smoothSolver:  Solving for Ux, Initial residual = 0.000268277, Final residual = 2.4169e-05, No Iterations 4
smoothSolver:  Solving for Uy, Initial residual = 0.00028742, Final residual = 2.86121e-05, No Iterations 3
GAMG:  Solving for p, Initial residual = 0.00046423, Final residual = 3.78475e-05, No Iterations 3
time step continuity errors : sum local = 0.000116176, global = -1.83425e-17, cumulative = 8.58986e-17
ExecutionTime = 0.51 s  ClockTime = 1 s

Time = 148

smoothSolver:  Solving for Ux, Initial residual = 0.000265002, Final residual = 2.38845e-05, No Iterations 4
smoothSolver:  Solving for Uy, Initial residual = 0.000283668, Final residual = 2.82666e-05, No Iterations 3
GAMG:  Solving for p, Initial residual = 0.000457997, Final residual = 3.73953e-05, No Iterations 3
time step continuity errors : sum local = 0.000114823, global = -2.36915e-17, cumulative = 6.22071e-17
ExecutionTime = 0.51 s  ClockTime = 1 s

Time = 149

smoothSolver:  Solving for Ux, Initial residual = 0.000261785, Final residual = 2.36049e-05, No Iterations 4
smoothSolver:  Solving for Uy, Initial residual = 0.000279985, Final residual = 2.79271e-05, No Iterations 3
GAMG:  Solving for p, Initial residual = 0.000451896, Final residual = 3.69515e-05, No Iterations 3
time step continuity errors : sum local = 0.000113494, global = -4.69934e-17, cumulative = 1.52137e-17
ExecutionTime = 0.51 s  ClockTime = 1 s

Time = 150

smoothSolver:  Solving for Ux, Initial residual = 0.000258627, Final residual = 2.33303e-05, No Iterations 4
smoothSolver:  Solving for Uy, Initial residual = 0.000276372, Final residual = 2.75933e-05, No Iterations 3
GAMG:  Solving for p, Initial residual = 0.00044593, Final residual = 3.65159e-05, No Iterations 3
time step continuity errors : sum local = 0.000112189, global = -1.26801e-17, cumulative = 2.53365e-18
ExecutionTime = 0.52 s  ClockTime = 1 s

Time = 151

smoothSolver:  Solving for Ux, Initial residual = 0.000255525, Final residual = 2.30602e-05, No Iterations 4
smoothSolver:  Solving for Uy, Initial residual = 0.000272829, Final residual = 2.72648e-05, No Iterations 3
GAMG:  Solving for p, Initial residual = 0.000440098, Final residual = 3.6088e-05, No Iterations 3
time step continuity errors : sum local = 0.000110906, global = 2.71601e-17, cumulative = 2.96938e-17
ExecutionTime = 0.53 s  ClockTime = 1 s

Time = 152

smoothSolver:  Solving for Ux, Initial residual = 0.000252483, Final residual = 2.27945e-05, No Iterations 4
smoothSolver:  Solving for Uy, Initial residual = 0.000269351, Final residual = 1.40307e-05, No Iterations 4
GAMG:  Solving for p, Initial residual = 0.00044472, Final residual = 3.75212e-05, No Iterations 3
time step continuity errors : sum local = 0.000115112, global = 1.45351e-17, cumulative = 4.42288e-17
ExecutionTime = 0.53 s  ClockTime = 1 s

Time = 153

smoothSolver:  Solving for Ux, Initial residual = 0.000250514, Final residual = 2.26432e-05, No Iterations 4
smoothSolver:  Solving for Uy, Initial residual = 0.000261478, Final residual = 2.57673e-05, No Iterations 3
GAMG:  Solving for p, Initial residual = 0.000426476, Final residual = 3.44926e-05, No Iterations 3
time step continuity errors : sum local = 0.000106186, global = 4.20975e-18, cumulative = 4.84386e-17
ExecutionTime = 0.54 s  ClockTime = 1 s

Time = 154

smoothSolver:  Solving for Ux, Initial residual = 0.000247751, Final residual = 2.23764e-05, No Iterations 4
smoothSolver:  Solving for Uy, Initial residual = 0.000260815, Final residual = 2.5985e-05, No Iterations 3
GAMG:  Solving for p, Initial residual = 0.000421821, Final residual = 3.43579e-05, No Iterations 3
time step continuity errors : sum local = 0.000105773, global = 2.54957e-18, cumulative = 5.09882e-17
ExecutionTime = 0.54 s  ClockTime = 1 s

Time = 155

smoothSolver:  Solving for Ux, Initial residual = 0.000244317, Final residual = 2.2067e-05, No Iterations 4
smoothSolver:  Solving for Uy, Initial residual = 0.000258959, Final residual = 1.35218e-05, No Iterations 4
GAMG:  Solving for p, Initial residual = 0.000428226, Final residual = 3.61425e-05, No Iterations 3
time step continuity errors : sum local = 0.000111001, global = -2.59785e-17, cumulative = 2.50097e-17
ExecutionTime = 0.54 s  ClockTime = 1 s

Time = 156

smoothSolver:  Solving for Ux, Initial residual = 0.000241987, Final residual = 2.18795e-05, No Iterations 4
smoothSolver:  Solving for Uy, Initial residual = 0.000251828, Final residual = 2.48909e-05, No Iterations 3
GAMG:  Solving for p, Initial residual = 0.000410732, Final residual = 3.33329e-05, No Iterations 3
time step continuity errors : sum local = 0.000102692, global = -2.96462e-17, cumulative = -4.63648e-18
ExecutionTime = 0.55 s  ClockTime = 1 s

Time = 157

smoothSolver:  Solving for Ux, Initial residual = 0.000239215, Final residual = 2.16196e-05, No Iterations 4
smoothSolver:  Solving for Uy, Initial residual = 0.000251277, Final residual = 2.5106e-05, No Iterations 3
GAMG:  Solving for p, Initial residual = 0.000406367, Final residual = 3.31983e-05, No Iterations 3
time step continuity errors : sum local = 0.000102267, global = -3.18569e-17, cumulative = -3.64934e-17
ExecutionTime = 0.55 s  ClockTime = 1 s

Time = 158

smoothSolver:  Solving for Ux, Initial residual = 0.000235915, Final residual = 2.13253e-05, No Iterations 4
smoothSolver:  Solving for Uy, Initial residual = 0.000249519, Final residual = 1.30699e-05, No Iterations 4
GAMG:  Solving for p, Initial residual = 0.000412574, Final residual = 3.49126e-05, No Iterations 3
time step continuity errors : sum local = 0.000107292, global = 8.13999e-18, cumulative = -2.83534e-17
ExecutionTime = 0.55 s  ClockTime = 1 s

Time = 159

smoothSolver:  Solving for Ux, Initial residual = 0.000233675, Final residual = 2.11442e-05, No Iterations 4
smoothSolver:  Solving for Uy, Initial residual = 0.00024266, Final residual = 2.40525e-05, No Iterations 3
GAMG:  Solving for p, Initial residual = 0.000395561, Final residual = 3.21875e-05, No Iterations 3
time step continuity errors : sum local = 9.92279e-05, global = 3.52747e-17, cumulative = 6.92128e-18
ExecutionTime = 0.55 s  ClockTime = 1 s

Time = 160

smoothSolver:  Solving for Ux, Initial residual = 0.000231043, Final residual = 2.09005e-05, No Iterations 4
smoothSolver:  Solving for Uy, Initial residual = 0.000242125, Final residual = 1.26298e-05, No Iterations 4
GAMG:  Solving for p, Initial residual = 0.000400682, Final residual = 3.37422e-05, No Iterations 3
time step continuity errors : sum local = 0.0001038, global = 6.6221e-17, cumulative = 7.31423e-17
ExecutionTime = 0.56 s  ClockTime = 1 s

Time = 161

smoothSolver:  Solving for Ux, Initial residual = 0.000228704, Final residual = 2.07099e-05, No Iterations 4
smoothSolver:  Solving for Uy, Initial residual = 0.000236452, Final residual = 2.34608e-05, No Iterations 3
GAMG:  Solving for p, Initial residual = 0.00038576, Final residual = 3.13774e-05, No Iterations 3
time step continuity errors : sum local = 9.68021e-05, global = 3.50333e-17, cumulative = 1.08176e-16
ExecutionTime = 0.56 s  ClockTime = 1 s

Time = 162

smoothSolver:  Solving for Ux, Initial residual = 0.000225939, Final residual = 2.0449e-05, No Iterations 4
smoothSolver:  Solving for Uy, Initial residual = 0.000236196, Final residual = 1.23447e-05, No Iterations 4
GAMG:  Solving for p, Initial residual = 0.000391144, Final residual = 3.3009e-05, No Iterations 3
time step continuity errors : sum local = 0.000101597, global = 1.73684e-17, cumulative = 1.25544e-16
ExecutionTime = 0.56 s  ClockTime = 1 s

Time = 163

smoothSolver:  Solving for Ux, Initial residual = 0.000223533, Final residual = 2.02507e-05, No Iterations 4
smoothSolver:  Solving for Uy, Initial residual = 0.000230739, Final residual = 2.2927e-05, No Iterations 3
GAMG:  Solving for p, Initial residual = 0.000376428, Final residual = 3.06985e-05, No Iterations 3
time step continuity errors : sum local = 9.47464e-05, global = 3.27759e-17, cumulative = 1.5832e-16
ExecutionTime = 0.56 s  ClockTime = 1 s

Time = 164

smoothSolver:  Solving for Ux, Initial residual = 0.000220815, Final residual = 1.99987e-05, No Iterations 4
smoothSolver:  Solving for Uy, Initial residual = 0.000230512, Final residual = 1.20662e-05, No Iterations 4
GAMG:  Solving for p, Initial residual = 0.00038185, Final residual = 3.22861e-05, No Iterations 3
time step continuity errors : sum local = 9.94102e-05, global = -6.31887e-18, cumulative = 1.52001e-16
ExecutionTime = 0.57 s  ClockTime = 1 s

Time = 165

smoothSolver:  Solving for Ux, Initial residual = 0.00021848, Final residual = 1.98048e-05, No Iterations 4
smoothSolver:  Solving for Uy, Initial residual = 0.000225219, Final residual = 2.24082e-05, No Iterations 3
GAMG:  Solving for p, Initial residual = 0.000367454, Final residual = 3.00121e-05, No Iterations 3
time step continuity errors : sum local = 9.26628e-05, global = 2.69356e-18, cumulative = 1.54695e-16
ExecutionTime = 0.58 s  ClockTime = 1 s

Time = 166

smoothSolver:  Solving for Ux, Initial residual = 0.000215858, Final residual = 1.95619e-05, No Iterations 4
smoothSolver:  Solving for Uy, Initial residual = 0.000225021, Final residual = 1.17966e-05, No Iterations 4
GAMG:  Solving for p, Initial residual = 0.000372885, Final residual = 3.15685e-05, No Iterations 3
time step continuity errors : sum local = 9.72374e-05, global = 1.93547e-18, cumulative = 1.5663e-16
ExecutionTime = 0.58 s  ClockTime = 1 s

Time = 167

smoothSolver:  Solving for Ux, Initial residual = 0.000213592, Final residual = 1.93707e-05, No Iterations 4
smoothSolver:  Solving for Uy, Initial residual = 0.000219874, Final residual = 2.19061e-05, No Iterations 3
GAMG:  Solving for p, Initial residual = 0.000358811, Final residual = 2.9343e-05, No Iterations 3
time step continuity errors : sum local = 9.06307e-05, global = -3.70577e-18, cumulative = 1.52924e-16
ExecutionTime = 0.58 s  ClockTime = 1 s

Time = 168

smoothSolver:  Solving for Ux, Initial residual = 0.000211046, Final residual = 1.91346e-05, No Iterations 4
smoothSolver:  Solving for Uy, Initial residual = 0.000219708, Final residual = 1.15352e-05, No Iterations 4
GAMG:  Solving for p, Initial residual = 0.00036425, Final residual = 3.0875e-05, No Iterations 3
time step continuity errors : sum local = 9.51368e-05, global = 1.20194e-17, cumulative = 1.64944e-16
[...]
ExecutionTime = 5.39 s  ClockTime = 6 s

Time = 1959

smoothSolver:  Solving for Ux, Initial residual = 9.37464e-06, Final residual = 9.37464e-06, No Iterations 0
smoothSolver:  Solving for Uy, Initial residual = 9.37755e-06, Final residual = 9.37755e-06, No Iterations 0
GAMG:  Solving for p, Initial residual = 2.00667e-06, Final residual = 1.64475e-07, No Iterations 1
time step continuity errors : sum local = 5.33529e-07, global = 3.7333e-18, cumulative = 6.31161e-15
ExecutionTime = 5.39 s  ClockTime = 6 s

Time = 1960

smoothSolver:  Solving for Ux, Initial residual = 1.04078e-05, Final residual = 8.69529e-07, No Iterations 1
smoothSolver:  Solving for Uy, Initial residual = 1.11602e-05, Final residual = 8.74203e-07, No Iterations 1
GAMG:  Solving for p, Initial residual = 1.57306e-06, Final residual = 2.16016e-07, No Iterations 1
time step continuity errors : sum local = 7.05966e-07, global = 2.77403e-19, cumulative = 6.31189e-15
ExecutionTime = 5.4 s  ClockTime = 6 s

Time = 1961

smoothSolver:  Solving for Ux, Initial residual = 5.29537e-06, Final residual = 5.29537e-06, No Iterations 0
smoothSolver:  Solving for Uy, Initial residual = 6.04064e-06, Final residual = 6.04064e-06, No Iterations 0
GAMG:  Solving for p, Initial residual = 1.16952e-06, Final residual = 1.36357e-07, No Iterations 1
time step continuity errors : sum local = 4.62321e-07, global = 2.0729e-17, cumulative = 6.33262e-15
ExecutionTime = 5.4 s  ClockTime = 6 s

Time = 1962

smoothSolver:  Solving for Ux, Initial residual = 5.89006e-06, Final residual = 5.89006e-06, No Iterations 0
smoothSolver:  Solving for Uy, Initial residual = 6.68196e-06, Final residual = 6.68196e-06, No Iterations 0
GAMG:  Solving for p, Initial residual = 1.10385e-06, Final residual = 1.26868e-07, No Iterations 1
time step continuity errors : sum local = 4.01866e-07, global = 9.61382e-19, cumulative = 6.33358e-15
ExecutionTime = 5.41 s  ClockTime = 6 s

Time = 1963

smoothSolver:  Solving for Ux, Initial residual = 6.54425e-06, Final residual = 6.54425e-06, No Iterations 0
smoothSolver:  Solving for Uy, Initial residual = 7.27688e-06, Final residual = 7.27688e-06, No Iterations 0
GAMG:  Solving for p, Initial residual = 1.10726e-06, Final residual = 1.11149e-07, No Iterations 1
time step continuity errors : sum local = 3.60206e-07, global = 5.32148e-18, cumulative = 6.3389e-15
ExecutionTime = 5.41 s  ClockTime = 6 s

Time = 1964

smoothSolver:  Solving for Ux, Initial residual = 7.50471e-06, Final residual = 7.50471e-06, No Iterations 0
smoothSolver:  Solving for Uy, Initial residual = 8.28808e-06, Final residual = 8.28808e-06, No Iterations 0
GAMG:  Solving for p, Initial residual = 1.18834e-06, Final residual = 1.07245e-07, No Iterations 1
time step continuity errors : sum local = 3.52095e-07, global = -1.83594e-18, cumulative = 6.33707e-15
ExecutionTime = 5.41 s  ClockTime = 6 s

Time = 1965

smoothSolver:  Solving for Ux, Initial residual = 8.74787e-06, Final residual = 8.74787e-06, No Iterations 0
smoothSolver:  Solving for Uy, Initial residual = 9.84968e-06, Final residual = 9.84968e-06, No Iterations 0
GAMG:  Solving for p, Initial residual = 1.32268e-06, Final residual = 1.0965e-07, No Iterations 1
time step continuity errors : sum local = 3.63095e-07, global = -1.70465e-18, cumulative = 6.33536e-15
ExecutionTime = 5.41 s  ClockTime = 6 s

Time = 1966

smoothSolver:  Solving for Ux, Initial residual = 9.81841e-06, Final residual = 9.81841e-06, No Iterations 0
smoothSolver:  Solving for Uy, Initial residual = 1.11998e-05, Final residual = 8.26227e-07, No Iterations 1
GAMG:  Solving for p, Initial residual = 6.06022e-06, Final residual = 3.43236e-07, No Iterations 1
time step continuity errors : sum local = 1.09471e-06, global = 2.61648e-17, cumulative = 6.36153e-15
ExecutionTime = 5.41 s  ClockTime = 6 s

Time = 1967

smoothSolver:  Solving for Ux, Initial residual = 9.54314e-06, Final residual = 9.54314e-06, No Iterations 0
smoothSolver:  Solving for Uy, Initial residual = 7.33656e-06, Final residual = 7.33656e-06, No Iterations 0
GAMG:  Solving for p, Initial residual = 3.2703e-06, Final residual = 2.43727e-07, No Iterations 1
time step continuity errors : sum local = 7.8555e-07, global = -1.49607e-17, cumulative = 6.34657e-15
ExecutionTime = 5.42 s  ClockTime = 6 s

Time = 1968

smoothSolver:  Solving for Ux, Initial residual = 1.03129e-05, Final residual = 8.0657e-07, No Iterations 1
smoothSolver:  Solving for Uy, Initial residual = 9.26857e-06, Final residual = 9.26857e-06, No Iterations 0
GAMG:  Solving for p, Initial residual = 5.17756e-06, Final residual = 3.34642e-07, No Iterations 1
time step continuity errors : sum local = 1.07521e-06, global = -6.05036e-17, cumulative = 6.28606e-15
ExecutionTime = 5.42 s  ClockTime = 6 s

Time = 1969

smoothSolver:  Solving for Ux, Initial residual = 6.50276e-06, Final residual = 6.50276e-06, No Iterations 0
smoothSolver:  Solving for Uy, Initial residual = 9.83005e-06, Final residual = 9.83005e-06, No Iterations 0
GAMG:  Solving for p, Initial residual = 2.28932e-06, Final residual = 1.9511e-07, No Iterations 1
time step continuity errors : sum local = 6.45254e-07, global = 4.33723e-17, cumulative = 6.32944e-15
ExecutionTime = 5.42 s  ClockTime = 6 s

Time = 1970

smoothSolver:  Solving for Ux, Initial residual = 7.87588e-06, Final residual = 7.87588e-06, No Iterations 0
smoothSolver:  Solving for Uy, Initial residual = 1.08302e-05, Final residual = 7.6442e-07, No Iterations 1
GAMG:  Solving for p, Initial residual = 4.96803e-06, Final residual = 3.52778e-07, No Iterations 1
time step continuity errors : sum local = 1.14103e-06, global = -9.01243e-18, cumulative = 6.32042e-15
ExecutionTime = 5.42 s  ClockTime = 6 s

Time = 1971

smoothSolver:  Solving for Ux, Initial residual = 7.85953e-06, Final residual = 7.85953e-06, No Iterations 0
smoothSolver:  Solving for Uy, Initial residual = 6.73978e-06, Final residual = 6.73978e-06, No Iterations 0
GAMG:  Solving for p, Initial residual = 2.07378e-06, Final residual = 2.11473e-07, No Iterations 1
time step continuity errors : sum local = 7.04261e-07, global = 3.79958e-17, cumulative = 6.35842e-15
ExecutionTime = 5.43 s  ClockTime = 6 s

Time = 1972

smoothSolver:  Solving for Ux, Initial residual = 8.73671e-06, Final residual = 8.73671e-06, No Iterations 0
smoothSolver:  Solving for Uy, Initial residual = 8.19194e-06, Final residual = 8.19194e-06, No Iterations 0
GAMG:  Solving for p, Initial residual = 1.90307e-06, Final residual = 1.86256e-07, No Iterations 1
time step continuity errors : sum local = 5.9137e-07, global = 1.98312e-17, cumulative = 6.37825e-15
ExecutionTime = 5.43 s  ClockTime = 6 s

Time = 1973

smoothSolver:  Solving for Ux, Initial residual = 1.00805e-05, Final residual = 7.62829e-07, No Iterations 1
smoothSolver:  Solving for Uy, Initial residual = 1.00176e-05, Final residual = 7.06872e-07, No Iterations 1
GAMG:  Solving for p, Initial residual = 1.84504e-06, Final residual = 2.19057e-07, No Iterations 1
time step continuity errors : sum local = 7.09533e-07, global = 3.84744e-17, cumulative = 6.41672e-15
ExecutionTime = 5.43 s  ClockTime = 6 s

Time = 1974

smoothSolver:  Solving for Ux, Initial residual = 5.08056e-06, Final residual = 5.08056e-06, No Iterations 0
smoothSolver:  Solving for Uy, Initial residual = 5.57407e-06, Final residual = 5.57407e-06, No Iterations 0
GAMG:  Solving for p, Initial residual = 1.39692e-06, Final residual = 1.48448e-07, No Iterations 1
time step continuity errors : sum local = 4.95636e-07, global = 9.19031e-18, cumulative = 6.42591e-15
ExecutionTime = 5.43 s  ClockTime = 6 s

Time = 1975

smoothSolver:  Solving for Ux, Initial residual = 5.55736e-06, Final residual = 5.55736e-06, No Iterations 0
smoothSolver:  Solving for Uy, Initial residual = 6.6118e-06, Final residual = 6.6118e-06, No Iterations 0
GAMG:  Solving for p, Initial residual = 1.36367e-06, Final residual = 1.3419e-07, No Iterations 1
time step continuity errors : sum local = 4.23381e-07, global = 3.54229e-17, cumulative = 6.46134e-15
ExecutionTime = 5.43 s  ClockTime = 6 s

Time = 1976

smoothSolver:  Solving for Ux, Initial residual = 6.4175e-06, Final residual = 6.4175e-06, No Iterations 0
smoothSolver:  Solving for Uy, Initial residual = 7.61523e-06, Final residual = 7.61523e-06, No Iterations 0
GAMG:  Solving for p, Initial residual = 1.41768e-06, Final residual = 1.13555e-07, No Iterations 1
time step continuity errors : sum local = 3.67185e-07, global = -3.72144e-17, cumulative = 6.42412e-15
ExecutionTime = 5.43 s  ClockTime = 6 s

Time = 1977

smoothSolver:  Solving for Ux, Initial residual = 7.65445e-06, Final residual = 7.65445e-06, No Iterations 0
smoothSolver:  Solving for Uy, Initial residual = 8.76045e-06, Final residual = 8.76045e-06, No Iterations 0
GAMG:  Solving for p, Initial residual = 1.29281e-06, Final residual = 1.12204e-07, No Iterations 1
time step continuity errors : sum local = 3.66731e-07, global = 2.42442e-17, cumulative = 6.44837e-15
ExecutionTime = 5.44 s  ClockTime = 6 s

Time = 1978

smoothSolver:  Solving for Ux, Initial residual = 8.9462e-06, Final residual = 8.9462e-06, No Iterations 0
smoothSolver:  Solving for Uy, Initial residual = 9.94936e-06, Final residual = 9.94936e-06, No Iterations 0
GAMG:  Solving for p, Initial residual = 1.35268e-06, Final residual = 1.12032e-07, No Iterations 1
time step continuity errors : sum local = 3.69163e-07, global = 3.13169e-17, cumulative = 6.47968e-15
ExecutionTime = 5.44 s  ClockTime = 6 s

Time = 1979

smoothSolver:  Solving for Ux, Initial residual = 1.02587e-05, Final residual = 8.19288e-07, No Iterations 1
smoothSolver:  Solving for Uy, Initial residual = 1.14024e-05, Final residual = 8.54052e-07, No Iterations 1
GAMG:  Solving for p, Initial residual = 1.46005e-06, Final residual = 1.93208e-07, No Iterations 1
time step continuity errors : sum local = 6.31369e-07, global = 9.19454e-18, cumulative = 6.48888e-15
ExecutionTime = 5.44 s  ClockTime = 6 s

Time = 1980

smoothSolver:  Solving for Ux, Initial residual = 5.32534e-06, Final residual = 5.32534e-06, No Iterations 0
smoothSolver:  Solving for Uy, Initial residual = 6.17024e-06, Final residual = 6.17024e-06, No Iterations 0
GAMG:  Solving for p, Initial residual = 1.15295e-06, Final residual = 1.29454e-07, No Iterations 1
time step continuity errors : sum local = 4.37089e-07, global = 1.44737e-17, cumulative = 6.50335e-15
ExecutionTime = 5.44 s  ClockTime = 6 s

Time = 1981

smoothSolver:  Solving for Ux, Initial residual = 6.06489e-06, Final residual = 6.06489e-06, No Iterations 0
smoothSolver:  Solving for Uy, Initial residual = 7.2276e-06, Final residual = 7.2276e-06, No Iterations 0
GAMG:  Solving for p, Initial residual = 1.18532e-06, Final residual = 1.22501e-07, No Iterations 1
time step continuity errors : sum local = 3.87156e-07, global = 3.19098e-17, cumulative = 6.53526e-15
ExecutionTime = 5.45 s  ClockTime = 6 s

Time = 1982

smoothSolver:  Solving for Ux, Initial residual = 6.99985e-06, Final residual = 6.99985e-06, No Iterations 0
smoothSolver:  Solving for Uy, Initial residual = 8.21298e-06, Final residual = 8.21298e-06, No Iterations 0
GAMG:  Solving for p, Initial residual = 1.20329e-06, Final residual = 1.08496e-07, No Iterations 1
time step continuity errors : sum local = 3.50286e-07, global = -1.40629e-17, cumulative = 6.5212e-15
ExecutionTime = 5.45 s  ClockTime = 6 s

Time = 1983

smoothSolver:  Solving for Ux, Initial residual = 8.10512e-06, Final residual = 8.10512e-06, No Iterations 0
smoothSolver:  Solving for Uy, Initial residual = 9.25291e-06, Final residual = 9.25291e-06, No Iterations 0
GAMG:  Solving for p, Initial residual = 1.19357e-06, Final residual = 1.12451e-07, No Iterations 1
time step continuity errors : sum local = 3.65793e-07, global = 6.45566e-17, cumulative = 6.58576e-15
ExecutionTime = 5.45 s  ClockTime = 6 s

Time = 1984

smoothSolver:  Solving for Ux, Initial residual = 9.33831e-06, Final residual = 9.33831e-06, No Iterations 0
smoothSolver:  Solving for Uy, Initial residual = 1.05829e-05, Final residual = 8.28183e-07, No Iterations 1
GAMG:  Solving for p, Initial residual = 5.99361e-06, Final residual = 3.62522e-07, No Iterations 1
time step continuity errors : sum local = 1.14895e-06, global = 4.59177e-17, cumulative = 6.63167e-15
ExecutionTime = 5.45 s  ClockTime = 6 s

Time = 1985

smoothSolver:  Solving for Ux, Initial residual = 9.22489e-06, Final residual = 9.22489e-06, No Iterations 0
smoothSolver:  Solving for Uy, Initial residual = 7.23212e-06, Final residual = 7.23212e-06, No Iterations 0
GAMG:  Solving for p, Initial residual = 3.3446e-06, Final residual = 2.56922e-07, No Iterations 1
time step continuity errors : sum local = 8.21774e-07, global = -4.11891e-17, cumulative = 6.59048e-15
ExecutionTime = 5.46 s  ClockTime = 6 s

Time = 1986

smoothSolver:  Solving for Ux, Initial residual = 9.77626e-06, Final residual = 9.77626e-06, No Iterations 0
smoothSolver:  Solving for Uy, Initial residual = 9.19288e-06, Final residual = 9.19288e-06, No Iterations 0
GAMG:  Solving for p, Initial residual = 2.44995e-06, Final residual = 2.10882e-07, No Iterations 1
time step continuity errors : sum local = 6.80689e-07, global = -6.66615e-18, cumulative = 6.58382e-15
ExecutionTime = 5.46 s  ClockTime = 6 s

Time = 1987

smoothSolver:  Solving for Ux, Initial residual = 1.05784e-05, Final residual = 8.75582e-07, No Iterations 1
smoothSolver:  Solving for Uy, Initial residual = 1.10716e-05, Final residual = 8.57247e-07, No Iterations 1
GAMG:  Solving for p, Initial residual = 1.67682e-06, Final residual = 2.31301e-07, No Iterations 1
time step continuity errors : sum local = 7.54078e-07, global = -4.07846e-17, cumulative = 6.54303e-15
ExecutionTime = 5.46 s  ClockTime = 6 s

Time = 1988

smoothSolver:  Solving for Ux, Initial residual = 5.368e-06, Final residual = 5.368e-06, No Iterations 0
smoothSolver:  Solving for Uy, Initial residual = 6.06386e-06, Final residual = 6.06386e-06, No Iterations 0
GAMG:  Solving for p, Initial residual = 1.19873e-06, Final residual = 1.41518e-07, No Iterations 1
time step continuity errors : sum local = 4.78553e-07, global = -5.79582e-18, cumulative = 6.53724e-15
ExecutionTime = 5.46 s  ClockTime = 6 s

Time = 1989

smoothSolver:  Solving for Ux, Initial residual = 6.07341e-06, Final residual = 6.07341e-06, No Iterations 0
smoothSolver:  Solving for Uy, Initial residual = 6.99843e-06, Final residual = 6.99843e-06, No Iterations 0
GAMG:  Solving for p, Initial residual = 1.09835e-06, Final residual = 1.27251e-07, No Iterations 1
time step continuity errors : sum local = 4.02235e-07, global = -5.67724e-18, cumulative = 6.53156e-15
ExecutionTime = 5.47 s  ClockTime = 6 s

Time = 1990

smoothSolver:  Solving for Ux, Initial residual = 6.98113e-06, Final residual = 6.98113e-06, No Iterations 0
smoothSolver:  Solving for Uy, Initial residual = 7.92171e-06, Final residual = 7.92171e-06, No Iterations 0
GAMG:  Solving for p, Initial residual = 1.07597e-06, Final residual = 1.04548e-07, No Iterations 1
time step continuity errors : sum local = 3.39711e-07, global = -1.91853e-18, cumulative = 6.52964e-15
ExecutionTime = 5.47 s  ClockTime = 6 s

Time = 1991

smoothSolver:  Solving for Ux, Initial residual = 7.92366e-06, Final residual = 7.92366e-06, No Iterations 0
smoothSolver:  Solving for Uy, Initial residual = 8.93464e-06, Final residual = 8.93464e-06, No Iterations 0
GAMG:  Solving for p, Initial residual = 1.15757e-06, Final residual = 1.03661e-07, No Iterations 1
time step continuity errors : sum local = 3.40657e-07, global = 5.29417e-17, cumulative = 6.58258e-15
ExecutionTime = 5.47 s  ClockTime = 6 s

Time = 1992

smoothSolver:  Solving for Ux, Initial residual = 8.98905e-06, Final residual = 8.98905e-06, No Iterations 0
smoothSolver:  Solving for Uy, Initial residual = 1.01692e-05, Final residual = 8.03984e-07, No Iterations 1
GAMG:  Solving for p, Initial residual = 5.83992e-06, Final residual = 3.30821e-07, No Iterations 1
time step continuity errors : sum local = 1.05245e-06, global = -6.53698e-18, cumulative = 6.57605e-15
ExecutionTime = 5.47 s  ClockTime = 6 s

Time = 1993

smoothSolver:  Solving for Ux, Initial residual = 8.86984e-06, Final residual = 8.86984e-06, No Iterations 0
smoothSolver:  Solving for Uy, Initial residual = 6.968e-06, Final residual = 6.968e-06, No Iterations 0
GAMG:  Solving for p, Initial residual = 3.1255e-06, Final residual = 2.2399e-07, No Iterations 1
time step continuity errors : sum local = 7.20413e-07, global = 4.85329e-17, cumulative = 6.62458e-15
ExecutionTime = 5.47 s  ClockTime = 6 s

Time = 1994

smoothSolver:  Solving for Ux, Initial residual = 9.30563e-06, Final residual = 9.30563e-06, No Iterations 0
smoothSolver:  Solving for Uy, Initial residual = 8.75786e-06, Final residual = 8.75786e-06, No Iterations 0
GAMG:  Solving for p, Initial residual = 2.24492e-06, Final residual = 1.81341e-07, No Iterations 1
time step continuity errors : sum local = 5.88686e-07, global = 4.33829e-17, cumulative = 6.66796e-15
ExecutionTime = 5.48 s  ClockTime = 6 s

Time = 1995

smoothSolver:  Solving for Ux, Initial residual = 1.00899e-05, Final residual = 8.51589e-07, No Iterations 1
smoothSolver:  Solving for Uy, Initial residual = 1.04647e-05, Final residual = 8.16315e-07, No Iterations 1
GAMG:  Solving for p, Initial residual = 1.60472e-06, Final residual = 2.10683e-07, No Iterations 1
time step continuity errors : sum local = 6.90678e-07, global = 2.35221e-17, cumulative = 6.69148e-15
ExecutionTime = 5.48 s  ClockTime = 6 s

Time = 1996

smoothSolver:  Solving for Ux, Initial residual = 5.12648e-06, Final residual = 5.12648e-06, No Iterations 0
smoothSolver:  Solving for Uy, Initial residual = 5.72738e-06, Final residual = 5.72738e-06, No Iterations 0
GAMG:  Solving for p, Initial residual = 1.12808e-06, Final residual = 1.25416e-07, No Iterations 1
time step continuity errors : sum local = 4.30278e-07, global = 6.73984e-17, cumulative = 6.75888e-15
ExecutionTime = 5.48 s  ClockTime = 6 s

Time = 1997

smoothSolver:  Solving for Ux, Initial residual = 5.7332e-06, Final residual = 5.7332e-06, No Iterations 0
smoothSolver:  Solving for Uy, Initial residual = 6.58033e-06, Final residual = 6.58033e-06, No Iterations 0
GAMG:  Solving for p, Initial residual = 1.03074e-06, Final residual = 1.17324e-07, No Iterations 1
time step continuity errors : sum local = 3.72293e-07, global = 6.22781e-18, cumulative = 6.76511e-15
ExecutionTime = 5.48 s  ClockTime = 6 s

Time = 1998

smoothSolver:  Solving for Ux, Initial residual = 6.54159e-06, Final residual = 6.54159e-06, No Iterations 0
smoothSolver:  Solving for Uy, Initial residual = 7.45534e-06, Final residual = 7.45534e-06, No Iterations 0
GAMG:  Solving for p, Initial residual = 1.03506e-06, Final residual = 9.90825e-08, No Iterations 1
time step continuity errors : sum local = 3.23459e-07, global = -3.94506e-18, cumulative = 6.76117e-15
ExecutionTime = 5.49 s  ClockTime = 6 s

Time = 1999

smoothSolver:  Solving for Ux, Initial residual = 7.43138e-06, Final residual = 7.43138e-06, No Iterations 0
smoothSolver:  Solving for Uy, Initial residual = 8.40051e-06, Final residual = 8.40051e-06, No Iterations 0
GAMG:  Solving for p, Initial residual = 1.0815e-06, Final residual = 9.77249e-08, No Iterations 1
time step continuity errors : sum local = 3.21806e-07, global = 3.17849e-17, cumulative = 6.79295e-15
ExecutionTime = 5.49 s  ClockTime = 6 s

Time = 2000

smoothSolver:  Solving for Ux, Initial residual = 8.36439e-06, Final residual = 8.36439e-06, No Iterations 0
smoothSolver:  Solving for Uy, Initial residual = 9.45344e-06, Final residual = 9.45344e-06, No Iterations 0
GAMG:  Solving for p, Initial residual = 1.25196e-06, Final residual = 1.10008e-07, No Iterations 1
time step continuity errors : sum local = 3.62131e-07, global = 1.4192e-17, cumulative = 6.80714e-15
ExecutionTime = 5.5 s  ClockTime = 6 s

End

