/*---------------------------------------------------------------------------*\
  =========                 |
  \\      /  F ield         | OpenFOAM: The Open Source CFD Toolbox
   \\    /   O peration     | Website:  https://openfoam.org
    \\  /    A nd           | Version:  7
     \\/     M anipulation  |
\*---------------------------------------------------------------------------*/
Build  : 7-1ff648926f77
Exec   : simpleFoam
Date   : Nov 14 2020
Time   : 20:24:58
Host   : "varad-XPS-15"
PID    : 32392
I/O    : uncollated
Case   : /home/varad/CFD/CFD-Sims/laminar-flow/square-cavity
nProcs : 1
sigFpe : Enabling floating point exception trapping (FOAM_SIGFPE).
fileModificationChecking : Monitoring run-time modified files using timeStampMaster (fileModificationSkew 10)
allowSystemOperations : Allowing user-supplied system call operations

// * * * * * * * * * * * * * * * * * * * * * * * * * * * * * * * * * * * * * //
Create time

Create mesh for time = 0


SIMPLE: Convergence criteria found
        p: tolerance 1e-06
        U: tolerance 1e-06
        "(k|epsilon|omega|f|v2)": tolerance 1e-06

Reading field p

Reading field U

Reading/calculating face flux field phi

Selecting incompressible transport model Newtonian
Selecting turbulence model type laminar
Selecting laminar stress model Stokes
No MRF models present

No finite volume options present

Starting time loop

Time = 1

smoothSolver:  Solving for Ux, Initial residual = 1, Final residual = 0.0559569, No Iterations 3
smoothSolver:  Solving for Uy, Initial residual = 0.999673, Final residual = 0.0322284, No Iterations 2
GAMG:  Solving for p, Initial residual = 1, Final residual = 0.030943, No Iterations 4
time step continuity errors : sum local = 0.00339802, global = -1.47595e-17, cumulative = -1.47595e-17
ExecutionTime = 0.02 s  ClockTime = 0 s

Time = 2

smoothSolver:  Solving for Ux, Initial residual = 0.159341, Final residual = 0.0125418, No Iterations 4
smoothSolver:  Solving for Uy, Initial residual = 0.350551, Final residual = 0.0337389, No Iterations 4
GAMG:  Solving for p, Initial residual = 0.482516, Final residual = 0.0150012, No Iterations 3
time step continuity errors : sum local = 0.00402186, global = -5.42948e-18, cumulative = -2.0189e-17
ExecutionTime = 0.02 s  ClockTime = 0 s

Time = 3

smoothSolver:  Solving for Ux, Initial residual = 0.0839722, Final residual = 0.00823316, No Iterations 4
smoothSolver:  Solving for Uy, Initial residual = 0.179321, Final residual = 0.0147227, No Iterations 5
GAMG:  Solving for p, Initial residual = 0.270486, Final residual = 0.00918369, No Iterations 3
time step continuity errors : sum local = 0.00379825, global = -4.04035e-18, cumulative = -2.42294e-17
ExecutionTime = 0.03 s  ClockTime = 0 s

Time = 4

smoothSolver:  Solving for Ux, Initial residual = 0.0533652, Final residual = 0.00346487, No Iterations 5
smoothSolver:  Solving for Uy, Initial residual = 0.132704, Final residual = 0.00983428, No Iterations 5
GAMG:  Solving for p, Initial residual = 0.156548, Final residual = 0.00533229, No Iterations 3
time step continuity errors : sum local = 0.0031165, global = 1.13919e-18, cumulative = -2.30902e-17
ExecutionTime = 0.03 s  ClockTime = 0 s

Time = 5

smoothSolver:  Solving for Ux, Initial residual = 0.0367648, Final residual = 0.00247642, No Iterations 5
smoothSolver:  Solving for Uy, Initial residual = 0.104071, Final residual = 0.00746894, No Iterations 5
GAMG:  Solving for p, Initial residual = 0.113537, Final residual = 0.00430988, No Iterations 3
time step continuity errors : sum local = 0.00307563, global = -1.33662e-17, cumulative = -3.64564e-17
ExecutionTime = 0.03 s  ClockTime = 0 s

Time = 6

smoothSolver:  Solving for Ux, Initial residual = 0.0278302, Final residual = 0.00197259, No Iterations 5
smoothSolver:  Solving for Uy, Initial residual = 0.0830101, Final residual = 0.00604573, No Iterations 5
GAMG:  Solving for p, Initial residual = 0.0921566, Final residual = 0.00372663, No Iterations 3
time step continuity errors : sum local = 0.00304296, global = -1.43657e-17, cumulative = -5.0822e-17
ExecutionTime = 0.04 s  ClockTime = 0 s

Time = 7

smoothSolver:  Solving for Ux, Initial residual = 0.0226052, Final residual = 0.00167835, No Iterations 5
smoothSolver:  Solving for Uy, Initial residual = 0.0688386, Final residual = 0.00508579, No Iterations 5
GAMG:  Solving for p, Initial residual = 0.0803413, Final residual = 0.00337892, No Iterations 3
time step continuity errors : sum local = 0.00304997, global = -2.67662e-18, cumulative = -5.34987e-17
ExecutionTime = 0.04 s  ClockTime = 0 s

Time = 8

smoothSolver:  Solving for Ux, Initial residual = 0.0193771, Final residual = 0.0015022, No Iterations 5
smoothSolver:  Solving for Uy, Initial residual = 0.0584905, Final residual = 0.00441375, No Iterations 5
GAMG:  Solving for p, Initial residual = 0.0722557, Final residual = 0.00315608, No Iterations 3
time step continuity errors : sum local = 0.00308161, global = 1.57211e-17, cumulative = -3.77776e-17
ExecutionTime = 0.05 s  ClockTime = 0 s

Time = 9

smoothSolver:  Solving for Ux, Initial residual = 0.0172765, Final residual = 0.00139502, No Iterations 5
smoothSolver:  Solving for Uy, Initial residual = 0.0504223, Final residual = 0.00391264, No Iterations 5
GAMG:  Solving for p, Initial residual = 0.0647152, Final residual = 0.00452324, No Iterations 3
time step continuity errors : sum local = 0.00417087, global = 1.21634e-17, cumulative = -2.56142e-17
ExecutionTime = 0.05 s  ClockTime = 0 s

Time = 10

smoothSolver:  Solving for Ux, Initial residual = 0.0160589, Final residual = 0.00132317, No Iterations 5
smoothSolver:  Solving for Uy, Initial residual = 0.044358, Final residual = 0.00352986, No Iterations 5
GAMG:  Solving for p, Initial residual = 0.0596183, Final residual = 0.00310797, No Iterations 3
time step continuity errors : sum local = 0.00309082, global = 2.32425e-17, cumulative = -2.37176e-18
ExecutionTime = 0.06 s  ClockTime = 0 s

Time = 11

smoothSolver:  Solving for Ux, Initial residual = 0.0151786, Final residual = 0.0012864, No Iterations 5
smoothSolver:  Solving for Uy, Initial residual = 0.0389464, Final residual = 0.00317523, No Iterations 5
GAMG:  Solving for p, Initial residual = 0.0521874, Final residual = 0.0030072, No Iterations 3
time step continuity errors : sum local = 0.00315571, global = 3.01544e-17, cumulative = 2.77826e-17
ExecutionTime = 0.06 s  ClockTime = 0 s

Time = 12

smoothSolver:  Solving for Ux, Initial residual = 0.0145051, Final residual = 0.00126405, No Iterations 5
smoothSolver:  Solving for Uy, Initial residual = 0.0346508, Final residual = 0.00289879, No Iterations 5
GAMG:  Solving for p, Initial residual = 0.0485576, Final residual = 0.00295331, No Iterations 3
time step continuity errors : sum local = 0.00325375, global = 8.30079e-18, cumulative = 3.60834e-17
ExecutionTime = 0.06 s  ClockTime = 0 s

Time = 13

smoothSolver:  Solving for Ux, Initial residual = 0.0139901, Final residual = 0.00125126, No Iterations 5
smoothSolver:  Solving for Uy, Initial residual = 0.0311377, Final residual = 0.00264755, No Iterations 5
GAMG:  Solving for p, Initial residual = 0.0454523, Final residual = 0.00287767, No Iterations 3
time step continuity errors : sum local = 0.0033203, global = -3.41864e-17, cumulative = 1.89702e-18
ExecutionTime = 0.07 s  ClockTime = 0 s

Time = 14

smoothSolver:  Solving for Ux, Initial residual = 0.0135613, Final residual = 0.00124162, No Iterations 5
smoothSolver:  Solving for Uy, Initial residual = 0.0282391, Final residual = 0.00243229, No Iterations 5
GAMG:  Solving for p, Initial residual = 0.0431079, Final residual = 0.0033886, No Iterations 3
time step continuity errors : sum local = 0.00378521, global = 3.53722e-17, cumulative = 3.72693e-17
ExecutionTime = 0.07 s  ClockTime = 0 s

Time = 15

smoothSolver:  Solving for Ux, Initial residual = 0.0132295, Final residual = 0.00122819, No Iterations 5
smoothSolver:  Solving for Uy, Initial residual = 0.0259958, Final residual = 0.00225403, No Iterations 5
GAMG:  Solving for p, Initial residual = 0.0419254, Final residual = 0.00285956, No Iterations 3
time step continuity errors : sum local = 0.00335195, global = -1.12487e-17, cumulative = 2.60206e-17
ExecutionTime = 0.07 s  ClockTime = 0 s

Time = 16

smoothSolver:  Solving for Ux, Initial residual = 0.0129624, Final residual = 0.00121886, No Iterations 5
smoothSolver:  Solving for Uy, Initial residual = 0.0240698, Final residual = 0.00208296, No Iterations 5
GAMG:  Solving for p, Initial residual = 0.0398496, Final residual = 0.00269217, No Iterations 3
time step continuity errors : sum local = 0.00327108, global = -3.70323e-17, cumulative = -1.10117e-17
ExecutionTime = 0.08 s  ClockTime = 0 s

Time = 17

smoothSolver:  Solving for Ux, Initial residual = 0.0128046, Final residual = 0.00121009, No Iterations 5
smoothSolver:  Solving for Uy, Initial residual = 0.0225012, Final residual = 0.00194335, No Iterations 5
GAMG:  Solving for p, Initial residual = 0.0387099, Final residual = 0.00257473, No Iterations 3
time step continuity errors : sum local = 0.00323032, global = 1.57548e-17, cumulative = 4.74312e-18
ExecutionTime = 0.08 s  ClockTime = 0 s

Time = 18

smoothSolver:  Solving for Ux, Initial residual = 0.0126609, Final residual = 0.00119865, No Iterations 5
smoothSolver:  Solving for Uy, Initial residual = 0.0211543, Final residual = 0.00182124, No Iterations 5
GAMG:  Solving for p, Initial residual = 0.0375842, Final residual = 0.00245918, No Iterations 3
time step continuity errors : sum local = 0.00318152, global = 1.03677e-17, cumulative = 1.51108e-17
ExecutionTime = 0.08 s  ClockTime = 0 s

Time = 19

smoothSolver:  Solving for Ux, Initial residual = 0.0124754, Final residual = 0.00118381, No Iterations 5
smoothSolver:  Solving for Uy, Initial residual = 0.0199111, Final residual = 0.00171333, No Iterations 5
GAMG:  Solving for p, Initial residual = 0.0364242, Final residual = 0.00289953, No Iterations 3
time step continuity errors : sum local = 0.0035678, global = 1.86344e-18, cumulative = 1.69742e-17
ExecutionTime = 0.09 s  ClockTime = 0 s

Time = 20

smoothSolver:  Solving for Ux, Initial residual = 0.0122402, Final residual = 0.0011611, No Iterations 5
smoothSolver:  Solving for Uy, Initial residual = 0.018885, Final residual = 0.00162371, No Iterations 5
GAMG:  Solving for p, Initial residual = 0.0358954, Final residual = 0.00233517, No Iterations 3
time step continuity errors : sum local = 0.00299019, global = -2.03304e-19, cumulative = 1.67709e-17
ExecutionTime = 0.09 s  ClockTime = 0 s

Time = 21

smoothSolver:  Solving for Ux, Initial residual = 0.0119166, Final residual = 0.00113708, No Iterations 5
smoothSolver:  Solving for Uy, Initial residual = 0.0178072, Final residual = 0.0015375, No Iterations 5
GAMG:  Solving for p, Initial residual = 0.0340459, Final residual = 0.00212435, No Iterations 3
time step continuity errors : sum local = 0.00280604, global = -2.00239e-17, cumulative = -3.25295e-18
ExecutionTime = 0.1 s  ClockTime = 0 s

Time = 22

smoothSolver:  Solving for Ux, Initial residual = 0.0116011, Final residual = 0.00111271, No Iterations 5
smoothSolver:  Solving for Uy, Initial residual = 0.0168479, Final residual = 0.00145864, No Iterations 5
GAMG:  Solving for p, Initial residual = 0.0328655, Final residual = 0.00198104, No Iterations 3
time step continuity errors : sum local = 0.00269632, global = 3.48978e-18, cumulative = 2.3683e-19
ExecutionTime = 0.1 s  ClockTime = 0 s

Time = 23

smoothSolver:  Solving for Ux, Initial residual = 0.0112516, Final residual = 0.00108354, No Iterations 5
smoothSolver:  Solving for Uy, Initial residual = 0.0159213, Final residual = 0.0013859, No Iterations 5
GAMG:  Solving for p, Initial residual = 0.0316174, Final residual = 0.00238972, No Iterations 3
time step continuity errors : sum local = 0.00307034, global = -1.18585e-17, cumulative = -1.16216e-17
ExecutionTime = 0.1 s  ClockTime = 0 s

Time = 24

smoothSolver:  Solving for Ux, Initial residual = 0.0108652, Final residual = 0.00104844, No Iterations 5
smoothSolver:  Solving for Uy, Initial residual = 0.015116, Final residual = 0.00132257, No Iterations 5
GAMG:  Solving for p, Initial residual = 0.0309262, Final residual = 0.00182412, No Iterations 3
time step continuity errors : sum local = 0.00244561, global = 1.8838e-17, cumulative = 7.21637e-18
ExecutionTime = 0.11 s  ClockTime = 0 s

Time = 25

smoothSolver:  Solving for Ux, Initial residual = 0.0104329, Final residual = 0.00101142, No Iterations 5
smoothSolver:  Solving for Uy, Initial residual = 0.0143252, Final residual = 0.00126553, No Iterations 5
GAMG:  Solving for p, Initial residual = 0.0289723, Final residual = 0.001625, No Iterations 3
time step continuity errors : sum local = 0.00225382, global = 2.72406e-17, cumulative = 3.44569e-17
ExecutionTime = 0.11 s  ClockTime = 0 s

Time = 26

smoothSolver:  Solving for Ux, Initial residual = 0.0100224, Final residual = 0.000977351, No Iterations 5
smoothSolver:  Solving for Uy, Initial residual = 0.0135761, Final residual = 0.00120938, No Iterations 5
GAMG:  Solving for p, Initial residual = 0.0277419, Final residual = 0.00193121, No Iterations 3
time step continuity errors : sum local = 0.00253802, global = 3.97936e-17, cumulative = 7.42506e-17
ExecutionTime = 0.12 s  ClockTime = 0 s

Time = 27

smoothSolver:  Solving for Ux, Initial residual = 0.00960317, Final residual = 0.000939402, No Iterations 5
smoothSolver:  Solving for Uy, Initial residual = 0.0129233, Final residual = 0.00115729, No Iterations 5
GAMG:  Solving for p, Initial residual = 0.0269266, Final residual = 0.00147918, No Iterations 3
time step continuity errors : sum local = 0.0020299, global = -1.45859e-17, cumulative = 5.96646e-17
ExecutionTime = 0.12 s  ClockTime = 0 s

Time = 28

smoothSolver:  Solving for Ux, Initial residual = 0.0091553, Final residual = 0.000899944, No Iterations 5
smoothSolver:  Solving for Uy, Initial residual = 0.0123023, Final residual = 0.00111071, No Iterations 5
GAMG:  Solving for p, Initial residual = 0.0251172, Final residual = 0.00132391, No Iterations 3
time step continuity errors : sum local = 0.00188173, global = 3.36272e-17, cumulative = 9.32919e-17
ExecutionTime = 0.12 s  ClockTime = 0 s

Time = 29

smoothSolver:  Solving for Ux, Initial residual = 0.00874286, Final residual = 0.000865194, No Iterations 5
smoothSolver:  Solving for Uy, Initial residual = 0.0117037, Final residual = 0.00106376, No Iterations 5
GAMG:  Solving for p, Initial residual = 0.0239913, Final residual = 0.00158836, No Iterations 3
time step continuity errors : sum local = 0.00213406, global = -3.49486e-17, cumulative = 5.83433e-17
ExecutionTime = 0.13 s  ClockTime = 0 s

Time = 30

smoothSolver:  Solving for Ux, Initial residual = 0.00835656, Final residual = 0.000828814, No Iterations 5
smoothSolver:  Solving for Uy, Initial residual = 0.0111646, Final residual = 0.00102006, No Iterations 5
GAMG:  Solving for p, Initial residual = 0.023163, Final residual = 0.00121181, No Iterations 3
time step continuity errors : sum local = 0.00170389, global = -1.7991e-17, cumulative = 4.03523e-17
ExecutionTime = 0.13 s  ClockTime = 0 s

Time = 31

smoothSolver:  Solving for Ux, Initial residual = 0.00793678, Final residual = 0.000790927, No Iterations 5
smoothSolver:  Solving for Uy, Initial residual = 0.0106782, Final residual = 0.000982187, No Iterations 5
GAMG:  Solving for p, Initial residual = 0.0215767, Final residual = 0.001086, No Iterations 3
time step continuity errors : sum local = 0.0015836, global = -4.4808e-17, cumulative = -4.45574e-18
ExecutionTime = 0.13 s  ClockTime = 0 s

Time = 32

smoothSolver:  Solving for Ux, Initial residual = 0.00758284, Final residual = 0.000486075, No Iterations 6
smoothSolver:  Solving for Uy, Initial residual = 0.0101867, Final residual = 0.000941906, No Iterations 5
GAMG:  Solving for p, Initial residual = 0.0210545, Final residual = 0.00132658, No Iterations 3
time step continuity errors : sum local = 0.00181872, global = 1.23836e-17, cumulative = 7.92789e-18
ExecutionTime = 0.14 s  ClockTime = 0 s

Time = 33

smoothSolver:  Solving for Ux, Initial residual = 0.00718057, Final residual = 0.00071649, No Iterations 5
smoothSolver:  Solving for Uy, Initial residual = 0.00982101, Final residual = 0.000912387, No Iterations 5
GAMG:  Solving for p, Initial residual = 0.0196093, Final residual = 0.00102973, No Iterations 3
time step continuity errors : sum local = 0.00147731, global = 6.51538e-17, cumulative = 7.30817e-17
ExecutionTime = 0.14 s  ClockTime = 0 s

Time = 34

smoothSolver:  Solving for Ux, Initial residual = 0.00684513, Final residual = 0.000439745, No Iterations 6
smoothSolver:  Solving for Uy, Initial residual = 0.00937125, Final residual = 0.000875045, No Iterations 5
GAMG:  Solving for p, Initial residual = 0.0188807, Final residual = 0.000894295, No Iterations 3
time step continuity errors : sum local = 0.00133796, global = 1.09606e-17, cumulative = 8.40423e-17
ExecutionTime = 0.14 s  ClockTime = 0 s

Time = 35

smoothSolver:  Solving for Ux, Initial residual = 0.00649385, Final residual = 0.000417082, No Iterations 6
smoothSolver:  Solving for Uy, Initial residual = 0.00899283, Final residual = 0.000843157, No Iterations 5
GAMG:  Solving for p, Initial residual = 0.017748, Final residual = 0.00113669, No Iterations 3
time step continuity errors : sum local = 0.00158712, global = -9.14796e-19, cumulative = 8.31275e-17
ExecutionTime = 0.15 s  ClockTime = 0 s

Time = 36

smoothSolver:  Solving for Ux, Initial residual = 0.00618775, Final residual = 0.00039668, No Iterations 6
smoothSolver:  Solving for Uy, Initial residual = 0.00861489, Final residual = 0.00080933, No Iterations 5
GAMG:  Solving for p, Initial residual = 0.01714, Final residual = 0.000855551, No Iterations 3
time step continuity errors : sum local = 0.00125605, global = 1.484e-17, cumulative = 9.79675e-17
ExecutionTime = 0.15 s  ClockTime = 0 s

Time = 37

smoothSolver:  Solving for Ux, Initial residual = 0.00585822, Final residual = 0.000376084, No Iterations 6
smoothSolver:  Solving for Uy, Initial residual = 0.00825158, Final residual = 0.00077813, No Iterations 5
GAMG:  Solving for p, Initial residual = 0.0158811, Final residual = 0.000985789, No Iterations 3
time step continuity errors : sum local = 0.00138005, global = -3.52366e-18, cumulative = 9.44438e-17
ExecutionTime = 0.16 s  ClockTime = 0 s

Time = 38

smoothSolver:  Solving for Ux, Initial residual = 0.00560391, Final residual = 0.000359348, No Iterations 6
smoothSolver:  Solving for Uy, Initial residual = 0.0078585, Final residual = 0.000742717, No Iterations 5
GAMG:  Solving for p, Initial residual = 0.0153201, Final residual = 0.000760434, No Iterations 3
time step continuity errors : sum local = 0.00111477, global = 3.7693e-17, cumulative = 1.32137e-16
ExecutionTime = 0.16 s  ClockTime = 0 s

Time = 39

smoothSolver:  Solving for Ux, Initial residual = 0.00532477, Final residual = 0.00034182, No Iterations 6
smoothSolver:  Solving for Uy, Initial residual = 0.00749803, Final residual = 0.000710501, No Iterations 5
GAMG:  Solving for p, Initial residual = 0.0142666, Final residual = 0.000687379, No Iterations 3
time step continuity errors : sum local = 0.00104716, global = -1.80757e-17, cumulative = 1.14061e-16
ExecutionTime = 0.16 s  ClockTime = 0 s

Time = 40

smoothSolver:  Solving for Ux, Initial residual = 0.00508735, Final residual = 0.000326883, No Iterations 6
smoothSolver:  Solving for Uy, Initial residual = 0.00713276, Final residual = 0.000676569, No Iterations 5
GAMG:  Solving for p, Initial residual = 0.013561, Final residual = 0.000864255, No Iterations 3
time step continuity errors : sum local = 0.00123343, global = -1.92276e-17, cumulative = 9.48335e-17
ExecutionTime = 0.17 s  ClockTime = 0 s

Time = 41

smoothSolver:  Solving for Ux, Initial residual = 0.00487031, Final residual = 0.000312239, No Iterations 6
smoothSolver:  Solving for Uy, Initial residual = 0.00678561, Final residual = 0.000643626, No Iterations 5
GAMG:  Solving for p, Initial residual = 0.0131017, Final residual = 0.000651935, No Iterations 3
time step continuity errors : sum local = 0.000980098, global = 4.41982e-17, cumulative = 1.39032e-16
ExecutionTime = 0.17 s  ClockTime = 0 s

Time = 42

smoothSolver:  Solving for Ux, Initial residual = 0.00462713, Final residual = 0.000296845, No Iterations 6
smoothSolver:  Solving for Uy, Initial residual = 0.00646787, Final residual = 0.000615072, No Iterations 5
GAMG:  Solving for p, Initial residual = 0.0121458, Final residual = 0.000762745, No Iterations 3
time step continuity errors : sum local = 0.00109154, global = -2.62581e-18, cumulative = 1.36406e-16
ExecutionTime = 0.17 s  ClockTime = 0 s

Time = 43

smoothSolver:  Solving for Ux, Initial residual = 0.00443369, Final residual = 0.000284262, No Iterations 6
smoothSolver:  Solving for Uy, Initial residual = 0.00614487, Final residual = 0.000584846, No Iterations 5
GAMG:  Solving for p, Initial residual = 0.011733, Final residual = 0.000588264, No Iterations 3
time step continuity errors : sum local = 0.000884667, global = 2.76302e-17, cumulative = 1.64036e-16
ExecutionTime = 0.18 s  ClockTime = 0 s

Time = 44

smoothSolver:  Solving for Ux, Initial residual = 0.00422297, Final residual = 0.00027109, No Iterations 6
smoothSolver:  Solving for Uy, Initial residual = 0.00585106, Final residual = 0.000557652, No Iterations 5
GAMG:  Solving for p, Initial residual = 0.0109425, Final residual = 0.000683937, No Iterations 3
time step continuity errors : sum local = 0.000984048, global = -2.75625e-17, cumulative = 1.36474e-16
ExecutionTime = 0.18 s  ClockTime = 0 s

Time = 45

smoothSolver:  Solving for Ux, Initial residual = 0.00405258, Final residual = 0.00025999, No Iterations 6
smoothSolver:  Solving for Uy, Initial residual = 0.00555388, Final residual = 0.000529369, No Iterations 5
GAMG:  Solving for p, Initial residual = 0.010566, Final residual = 0.000535588, No Iterations 3
time step continuity errors : sum local = 0.000810148, global = 3.69476e-17, cumulative = 1.73421e-16
ExecutionTime = 0.19 s  ClockTime = 0 s

Time = 46

smoothSolver:  Solving for Ux, Initial residual = 0.00386956, Final residual = 0.000248325, No Iterations 6
smoothSolver:  Solving for Uy, Initial residual = 0.00528966, Final residual = 0.000504203, No Iterations 5
GAMG:  Solving for p, Initial residual = 0.00987002, Final residual = 0.000488523, No Iterations 3
time step continuity errors : sum local = 0.000770904, global = 2.51569e-17, cumulative = 1.98578e-16
ExecutionTime = 0.19 s  ClockTime = 0 s

Time = 47

smoothSolver:  Solving for Ux, Initial residual = 0.00371438, Final residual = 0.00023854, No Iterations 6
smoothSolver:  Solving for Uy, Initial residual = 0.00502465, Final residual = 0.000478754, No Iterations 5
GAMG:  Solving for p, Initial residual = 0.00940447, Final residual = 0.000634557, No Iterations 3
time step continuity errors : sum local = 0.000931758, global = -2.0854e-17, cumulative = 1.77724e-16
ExecutionTime = 0.19 s  ClockTime = 0 s

Time = 48

smoothSolver:  Solving for Ux, Initial residual = 0.00357036, Final residual = 0.000228965, No Iterations 6
smoothSolver:  Solving for Uy, Initial residual = 0.00477865, Final residual = 0.000454821, No Iterations 5
GAMG:  Solving for p, Initial residual = 0.00912588, Final residual = 0.000472303, No Iterations 3
time step continuity errors : sum local = 0.000735321, global = -3.88958e-17, cumulative = 1.38828e-16
ExecutionTime = 0.2 s  ClockTime = 0 s

Time = 49

smoothSolver:  Solving for Ux, Initial residual = 0.00340599, Final residual = 0.000218623, No Iterations 6
smoothSolver:  Solving for Uy, Initial residual = 0.00455867, Final residual = 0.000434406, No Iterations 5
GAMG:  Solving for p, Initial residual = 0.00848845, Final residual = 0.000571948, No Iterations 3
time step continuity errors : sum local = 0.000841319, global = 3.52366e-17, cumulative = 1.74065e-16
ExecutionTime = 0.2 s  ClockTime = 0 s

Time = 50

smoothSolver:  Solving for Ux, Initial residual = 0.00327797, Final residual = 0.000210391, No Iterations 6
smoothSolver:  Solving for Uy, Initial residual = 0.00433294, Final residual = 0.000412549, No Iterations 5
GAMG:  Solving for p, Initial residual = 0.00825421, Final residual = 0.000432076, No Iterations 3
time step continuity errors : sum local = 0.000672455, global = -1.49247e-17, cumulative = 1.5914e-16
ExecutionTime = 0.21 s  ClockTime = 0 s

Time = 51

smoothSolver:  Solving for Ux, Initial residual = 0.0031348, Final residual = 0.000201387, No Iterations 6
smoothSolver:  Solving for Uy, Initial residual = 0.00413573, Final residual = 0.000393719, No Iterations 5
GAMG:  Solving for p, Initial residual = 0.0077109, Final residual = 0.00052077, No Iterations 3
time step continuity errors : sum local = 0.000769082, global = 3.82859e-18, cumulative = 1.62969e-16
ExecutionTime = 0.21 s  ClockTime = 0 s

Time = 52

smoothSolver:  Solving for Ux, Initial residual = 0.00302042, Final residual = 0.000193978, No Iterations 6
smoothSolver:  Solving for Uy, Initial residual = 0.00393353, Final residual = 0.00037397, No Iterations 5
GAMG:  Solving for p, Initial residual = 0.00750585, Final residual = 0.000397084, No Iterations 3
time step continuity errors : sum local = 0.000620446, global = -3.25261e-18, cumulative = 1.59716e-16
ExecutionTime = 0.22 s  ClockTime = 0 s

Time = 53

smoothSolver:  Solving for Ux, Initial residual = 0.00289159, Final residual = 0.000185768, No Iterations 6
smoothSolver:  Solving for Uy, Initial residual = 0.00375972, Final residual = 0.000357237, No Iterations 5
GAMG:  Solving for p, Initial residual = 0.00703122, Final residual = 0.000479593, No Iterations 3
time step continuity errors : sum local = 0.000711693, global = -4.49944e-17, cumulative = 1.14722e-16
ExecutionTime = 0.22 s  ClockTime = 0 s

Time = 54

smoothSolver:  Solving for Ux, Initial residual = 0.00278658, Final residual = 0.000178946, No Iterations 6
smoothSolver:  Solving for Uy, Initial residual = 0.00357932, Final residual = 0.000339695, No Iterations 5
GAMG:  Solving for p, Initial residual = 0.00685563, Final residual = 0.000365063, No Iterations 3
time step continuity errors : sum local = 0.000573741, global = 1.52466e-17, cumulative = 1.29968e-16
ExecutionTime = 0.23 s  ClockTime = 0 s

Time = 55

smoothSolver:  Solving for Ux, Initial residual = 0.00266777, Final residual = 0.000171387, No Iterations 6
smoothSolver:  Solving for Uy, Initial residual = 0.00342609, Final residual = 0.000324962, No Iterations 5
GAMG:  Solving for p, Initial residual = 0.00642842, Final residual = 0.00044354, No Iterations 3
time step continuity errors : sum local = 0.000661521, global = 7.48777e-18, cumulative = 1.37456e-16
ExecutionTime = 0.23 s  ClockTime = 0 s

Time = 56

smoothSolver:  Solving for Ux, Initial residual = 0.00257094, Final residual = 0.000165087, No Iterations 6
smoothSolver:  Solving for Uy, Initial residual = 0.00326516, Final residual = 0.000309358, No Iterations 5
GAMG:  Solving for p, Initial residual = 0.00627826, Final residual = 0.000335838, No Iterations 3
time step continuity errors : sum local = 0.000531089, global = -3.49316e-17, cumulative = 1.02524e-16
ExecutionTime = 0.23 s  ClockTime = 0 s

Time = 57

smoothSolver:  Solving for Ux, Initial residual = 0.0024604, Final residual = 0.000158018, No Iterations 6
smoothSolver:  Solving for Uy, Initial residual = 0.00313046, Final residual = 0.000296366, No Iterations 5
GAMG:  Solving for p, Initial residual = 0.00589169, Final residual = 0.000410296, No Iterations 3
time step continuity errors : sum local = 0.000615069, global = 6.22739e-17, cumulative = 1.64798e-16
ExecutionTime = 0.24 s  ClockTime = 0 s

Time = 58

smoothSolver:  Solving for Ux, Initial residual = 0.00237053, Final residual = 0.000152152, No Iterations 6
smoothSolver:  Solving for Uy, Initial residual = 0.00298615, Final residual = 0.000282453, No Iterations 5
GAMG:  Solving for p, Initial residual = 0.00576353, Final residual = 0.000308742, No Iterations 3
time step continuity errors : sum local = 0.000491173, global = 8.09763e-18, cumulative = 1.72896e-16
ExecutionTime = 0.24 s  ClockTime = 0 s

Time = 59

smoothSolver:  Solving for Ux, Initial residual = 0.00226736, Final residual = 0.000145544, No Iterations 6
smoothSolver:  Solving for Uy, Initial residual = 0.00286607, Final residual = 0.000270854, No Iterations 5
GAMG:  Solving for p, Initial residual = 0.00541057, Final residual = 0.000379083, No Iterations 3
time step continuity errors : sum local = 0.000570978, global = -1.58395e-17, cumulative = 1.57056e-16
ExecutionTime = 0.24 s  ClockTime = 0 s

Time = 60

smoothSolver:  Solving for Ux, Initial residual = 0.00218431, Final residual = 0.000140102, No Iterations 6
smoothSolver:  Solving for Uy, Initial residual = 0.00273576, Final residual = 0.000258273, No Iterations 5
GAMG:  Solving for p, Initial residual = 0.00530203, Final residual = 0.000283576, No Iterations 3
time step continuity errors : sum local = 0.000453585, global = -1.65341e-17, cumulative = 1.40522e-16
ExecutionTime = 0.24 s  ClockTime = 0 s

Time = 61

smoothSolver:  Solving for Ux, Initial residual = 0.00208824, Final residual = 0.000133924, No Iterations 6
smoothSolver:  Solving for Uy, Initial residual = 0.0026278, Final residual = 0.000247846, No Iterations 5
GAMG:  Solving for p, Initial residual = 0.00497955, Final residual = 0.000349652, No Iterations 3
time step continuity errors : sum local = 0.000528925, global = -2.7122e-17, cumulative = 1.134e-16
ExecutionTime = 0.25 s  ClockTime = 0 s

Time = 62

smoothSolver:  Solving for Ux, Initial residual = 0.00201123, Final residual = 0.000128849, No Iterations 6
smoothSolver:  Solving for Uy, Initial residual = 0.00250898, Final residual = 0.000236392, No Iterations 5
GAMG:  Solving for p, Initial residual = 0.00488497, Final residual = 0.000260152, No Iterations 3
time step continuity errors : sum local = 0.000418161, global = 1.35017e-17, cumulative = 1.26902e-16
ExecutionTime = 0.25 s  ClockTime = 0 s

Time = 63

smoothSolver:  Solving for Ux, Initial residual = 0.00192129, Final residual = 0.000123069, No Iterations 6
smoothSolver:  Solving for Uy, Initial residual = 0.00241066, Final residual = 0.000226932, No Iterations 5
GAMG:  Solving for p, Initial residual = 0.00458638, Final residual = 0.000321852, No Iterations 3
time step continuity errors : sum local = 0.000488814, global = 2.64275e-18, cumulative = 1.29545e-16
ExecutionTime = 0.25 s  ClockTime = 0 s

Time = 64

smoothSolver:  Solving for Ux, Initial residual = 0.00184942, Final residual = 0.00011833, No Iterations 6
smoothSolver:  Solving for Uy, Initial residual = 0.00230182, Final residual = 0.000216451, No Iterations 5
GAMG:  Solving for p, Initial residual = 0.00450128, Final residual = 0.000238332, No Iterations 3
time step continuity errors : sum local = 0.000384802, global = 9.12847e-17, cumulative = 2.2083e-16
ExecutionTime = 0.26 s  ClockTime = 0 s

Time = 65

smoothSolver:  Solving for Ux, Initial residual = 0.00176503, Final residual = 0.000112913, No Iterations 6
smoothSolver:  Solving for Uy, Initial residual = 0.00221173, Final residual = 0.000207833, No Iterations 5
GAMG:  Solving for p, Initial residual = 0.00422423, Final residual = 0.0002957, No Iterations 3
time step continuity errors : sum local = 0.000450743, global = -1.79402e-17, cumulative = 2.02889e-16
ExecutionTime = 0.26 s  ClockTime = 0 s

Time = 66

smoothSolver:  Solving for Ux, Initial residual = 0.00169794, Final residual = 0.000169695, No Iterations 5
smoothSolver:  Solving for Uy, Initial residual = 0.0021113, Final residual = 0.000198194, No Iterations 5
GAMG:  Solving for p, Initial residual = 0.00404096, Final residual = 0.000224132, No Iterations 3
time step continuity errors : sum local = 0.000360738, global = 3.67612e-17, cumulative = 2.39651e-16
ExecutionTime = 0.27 s  ClockTime = 0 s

Time = 67

smoothSolver:  Solving for Ux, Initial residual = 0.00163788, Final residual = 0.0001048, No Iterations 6
smoothSolver:  Solving for Uy, Initial residual = 0.00200827, Final residual = 0.000188182, No Iterations 5
GAMG:  Solving for p, Initial residual = 0.00393568, Final residual = 0.000266978, No Iterations 3
time step continuity errors : sum local = 0.000407906, global = -3.50841e-17, cumulative = 2.04567e-16
ExecutionTime = 0.27 s  ClockTime = 0 s

Time = 68

smoothSolver:  Solving for Ux, Initial residual = 0.00156482, Final residual = 0.000156327, No Iterations 5
smoothSolver:  Solving for Uy, Initial residual = 0.00192584, Final residual = 0.000180488, No Iterations 5
GAMG:  Solving for p, Initial residual = 0.00371765, Final residual = 0.000200892, No Iterations 3
time step continuity errors : sum local = 0.000324923, global = 3.31359e-17, cumulative = 2.37702e-16
ExecutionTime = 0.27 s  ClockTime = 0 s

Time = 69

smoothSolver:  Solving for Ux, Initial residual = 0.00150299, Final residual = 9.60708e-05, No Iterations 6
smoothSolver:  Solving for Uy, Initial residual = 0.0018384, Final residual = 0.000172065, No Iterations 5
GAMG:  Solving for p, Initial residual = 0.00361665, Final residual = 0.00024444, No Iterations 3
time step continuity errors : sum local = 0.000374616, global = -2.87991e-17, cumulative = 2.08903e-16
ExecutionTime = 0.28 s  ClockTime = 0 s

Time = 70

smoothSolver:  Solving for Ux, Initial residual = 0.00143406, Final residual = 0.000143155, No Iterations 5
smoothSolver:  Solving for Uy, Initial residual = 0.00176388, Final residual = 0.000165069, No Iterations 5
GAMG:  Solving for p, Initial residual = 0.00341674, Final residual = 0.000183878, No Iterations 3
time step continuity errors : sum local = 0.000298463, global = 8.99549e-18, cumulative = 2.17899e-16
ExecutionTime = 0.28 s  ClockTime = 0 s

Time = 71

smoothSolver:  Solving for Ux, Initial residual = 0.0013763, Final residual = 0.000137573, No Iterations 5
smoothSolver:  Solving for Uy, Initial residual = 0.00168322, Final residual = 0.000157284, No Iterations 5
GAMG:  Solving for p, Initial residual = 0.00323349, Final residual = 0.000223896, No Iterations 3
time step continuity errors : sum local = 0.000344, global = 5.33631e-18, cumulative = 2.23235e-16
ExecutionTime = 0.28 s  ClockTime = 0 s

Time = 72

smoothSolver:  Solving for Ux, Initial residual = 0.00132723, Final residual = 0.000132581, No Iterations 5
smoothSolver:  Solving for Uy, Initial residual = 0.00159891, Final residual = 0.000149208, No Iterations 5
GAMG:  Solving for p, Initial residual = 0.0031687, Final residual = 0.000163709, No Iterations 3
time step continuity errors : sum local = 0.000267518, global = -5.21603e-17, cumulative = 1.71075e-16
ExecutionTime = 0.29 s  ClockTime = 0 s

Time = 73

smoothSolver:  Solving for Ux, Initial residual = 0.00126639, Final residual = 0.000126521, No Iterations 5
smoothSolver:  Solving for Uy, Initial residual = 0.00153143, Final residual = 0.000142839, No Iterations 5
GAMG:  Solving for p, Initial residual = 0.00297065, Final residual = 0.000203897, No Iterations 3
time step continuity errors : sum local = 0.000314323, global = -1.50094e-17, cumulative = 1.56065e-16
ExecutionTime = 0.29 s  ClockTime = 0 s

Time = 74

smoothSolver:  Solving for Ux, Initial residual = 0.00121678, Final residual = 0.000121442, No Iterations 5
smoothSolver:  Solving for Uy, Initial residual = 0.00145864, Final residual = 0.00013598, No Iterations 5
GAMG:  Solving for p, Initial residual = 0.00290806, Final residual = 0.000148636, No Iterations 3
time step continuity errors : sum local = 0.000244188, global = -3.48639e-17, cumulative = 1.21202e-16
ExecutionTime = 0.29 s  ClockTime = 0 s

Time = 75

smoothSolver:  Solving for Ux, Initial residual = 0.00115865, Final residual = 0.000115653, No Iterations 5
smoothSolver:  Solving for Uy, Initial residual = 0.00139904, Final residual = 0.000130338, No Iterations 5
GAMG:  Solving for p, Initial residual = 0.00272304, Final residual = 0.000187365, No Iterations 3
time step continuity errors : sum local = 0.000289668, global = 2.97817e-17, cumulative = 1.50983e-16
ExecutionTime = 0.3 s  ClockTime = 0 s

Time = 76

smoothSolver:  Solving for Ux, Initial residual = 0.00111295, Final residual = 0.000110985, No Iterations 5
smoothSolver:  Solving for Uy, Initial residual = 0.00133208, Final residual = 0.000124021, No Iterations 5
GAMG:  Solving for p, Initial residual = 0.00266561, Final residual = 0.000135932, No Iterations 3
time step continuity errors : sum local = 0.000224112, global = 1.7e-17, cumulative = 1.67983e-16
ExecutionTime = 0.3 s  ClockTime = 0 s

Time = 77

smoothSolver:  Solving for Ux, Initial residual = 0.0010593, Final residual = 0.000105657, No Iterations 5
smoothSolver:  Solving for Uy, Initial residual = 0.00127695, Final residual = 0.000118803, No Iterations 5
GAMG:  Solving for p, Initial residual = 0.00249333, Final residual = 0.000171653, No Iterations 3
time step continuity errors : sum local = 0.000266021, global = 1.86347e-19, cumulative = 1.6817e-16
ExecutionTime = 0.31 s  ClockTime = 0 s

Time = 78

smoothSolver:  Solving for Ux, Initial residual = 0.00101737, Final residual = 0.000101375, No Iterations 5
smoothSolver:  Solving for Uy, Initial residual = 0.00121521, Final residual = 0.000112995, No Iterations 5
GAMG:  Solving for p, Initial residual = 0.00244008, Final residual = 0.000124068, No Iterations 3
time step continuity errors : sum local = 0.000205142, global = 1.86601e-17, cumulative = 1.8683e-16
ExecutionTime = 0.31 s  ClockTime = 0 s

Time = 79

smoothSolver:  Solving for Ux, Initial residual = 0.000967949, Final residual = 9.64763e-05, No Iterations 5
smoothSolver:  Solving for Uy, Initial residual = 0.00116458, Final residual = 0.000108215, No Iterations 5
GAMG:  Solving for p, Initial residual = 0.00228125, Final residual = 0.000156975, No Iterations 3
time step continuity errors : sum local = 0.000243787, global = -4.48927e-17, cumulative = 1.41937e-16
ExecutionTime = 0.31 s  ClockTime = 0 s

Time = 80

smoothSolver:  Solving for Ux, Initial residual = 0.000929417, Final residual = 9.25476e-05, No Iterations 5
smoothSolver:  Solving for Uy, Initial residual = 0.00110799, Final residual = 0.0001029, No Iterations 5
GAMG:  Solving for p, Initial residual = 0.00223214, Final residual = 0.000113191, No Iterations 3
time step continuity errors : sum local = 0.000187621, global = 7.6233e-20, cumulative = 1.42013e-16
ExecutionTime = 0.32 s  ClockTime = 0 s

Time = 81

smoothSolver:  Solving for Ux, Initial residual = 0.000883937, Final residual = 8.80481e-05, No Iterations 5
smoothSolver:  Solving for Uy, Initial residual = 0.00106166, Final residual = 9.8524e-05, No Iterations 5
GAMG:  Solving for p, Initial residual = 0.00208621, Final residual = 0.000143484, No Iterations 3
time step continuity errors : sum local = 0.000223259, global = 3.25769e-17, cumulative = 1.7459e-16
ExecutionTime = 0.32 s  ClockTime = 0 s

Time = 82

smoothSolver:  Solving for Ux, Initial residual = 0.000848582, Final residual = 8.44512e-05, No Iterations 5
smoothSolver:  Solving for Uy, Initial residual = 0.00100998, Final residual = 9.36695e-05, No Iterations 5
GAMG:  Solving for p, Initial residual = 0.00204076, Final residual = 0.000103266, No Iterations 3
time step continuity errors : sum local = 0.000171554, global = 8.63973e-19, cumulative = 1.75454e-16
ExecutionTime = 0.32 s  ClockTime = 0 s

Time = 83

smoothSolver:  Solving for Ux, Initial residual = 0.000806815, Final residual = 8.03291e-05, No Iterations 5
smoothSolver:  Solving for Uy, Initial residual = 0.000967684, Final residual = 8.96749e-05, No Iterations 5
GAMG:  Solving for p, Initial residual = 0.00190692, Final residual = 0.00013112, No Iterations 3
time step continuity errors : sum local = 0.000204377, global = 1.1435e-18, cumulative = 1.76598e-16
ExecutionTime = 0.33 s  ClockTime = 0 s

Time = 84

smoothSolver:  Solving for Ux, Initial residual = 0.000774449, Final residual = 7.70389e-05, No Iterations 5
smoothSolver:  Solving for Uy, Initial residual = 0.000920529, Final residual = 8.52481e-05, No Iterations 5
GAMG:  Solving for p, Initial residual = 0.00186503, Final residual = 9.42265e-05, No Iterations 3
time step continuity errors : sum local = 0.000156847, global = -6.45778e-17, cumulative = 1.1202e-16
ExecutionTime = 0.33 s  ClockTime = 0 s

Time = 85

smoothSolver:  Solving for Ux, Initial residual = 0.000736196, Final residual = 7.32644e-05, No Iterations 5
smoothSolver:  Solving for Uy, Initial residual = 0.000881937, Final residual = 8.16103e-05, No Iterations 5
GAMG:  Solving for p, Initial residual = 0.00174236, Final residual = 0.000119807, No Iterations 3
time step continuity errors : sum local = 0.000187036, global = -5.42101e-19, cumulative = 1.11478e-16
ExecutionTime = 0.34 s  ClockTime = 0 s

Time = 86

smoothSolver:  Solving for Ux, Initial residual = 0.000706622, Final residual = 7.02566e-05, No Iterations 5
smoothSolver:  Solving for Uy, Initial residual = 0.000838912, Final residual = 7.75808e-05, No Iterations 5
GAMG:  Solving for p, Initial residual = 0.00170399, Final residual = 8.59826e-05, No Iterations 3
time step continuity errors : sum local = 0.000143375, global = 6.03596e-17, cumulative = 1.71837e-16
ExecutionTime = 0.34 s  ClockTime = 0 s

Time = 87

smoothSolver:  Solving for Ux, Initial residual = 0.000671645, Final residual = 6.68052e-05, No Iterations 5
smoothSolver:  Solving for Uy, Initial residual = 0.000803674, Final residual = 7.42705e-05, No Iterations 5
GAMG:  Solving for p, Initial residual = 0.00159166, Final residual = 0.000109447, No Iterations 3
time step continuity errors : sum local = 0.000171105, global = 4.51638e-17, cumulative = 2.17001e-16
ExecutionTime = 0.34 s  ClockTime = 0 s

Time = 88

smoothSolver:  Solving for Ux, Initial residual = 0.000644621, Final residual = 6.40615e-05, No Iterations 5
smoothSolver:  Solving for Uy, Initial residual = 0.000764472, Final residual = 7.06041e-05, No Iterations 5
GAMG:  Solving for p, Initial residual = 0.00155659, Final residual = 7.84501e-05, No Iterations 3
time step continuity errors : sum local = 0.000131021, global = 2.00916e-17, cumulative = 2.37093e-16
ExecutionTime = 0.35 s  ClockTime = 0 s

Time = 89

smoothSolver:  Solving for Ux, Initial residual = 0.000612615, Final residual = 6.09102e-05, No Iterations 5
smoothSolver:  Solving for Uy, Initial residual = 0.000732352, Final residual = 6.75942e-05, No Iterations 5
GAMG:  Solving for p, Initial residual = 0.00145374, Final residual = 9.99562e-05, No Iterations 3
time step continuity errors : sum local = 0.000156469, global = 8.65668e-18, cumulative = 2.45749e-16
ExecutionTime = 0.35 s  ClockTime = 0 s

Time = 90

smoothSolver:  Solving for Ux, Initial residual = 0.00058791, Final residual = 5.84049e-05, No Iterations 5
smoothSolver:  Solving for Uy, Initial residual = 0.000696642, Final residual = 6.426e-05, No Iterations 5
GAMG:  Solving for p, Initial residual = 0.00142174, Final residual = 7.15597e-05, No Iterations 3
time step continuity errors : sum local = 0.000119685, global = 2.20398e-17, cumulative = 2.67789e-16
ExecutionTime = 0.35 s  ClockTime = 0 s

Time = 91

smoothSolver:  Solving for Ux, Initial residual = 0.000558643, Final residual = 5.55254e-05, No Iterations 5
smoothSolver:  Solving for Uy, Initial residual = 0.000667336, Final residual = 6.15218e-05, No Iterations 5
GAMG:  Solving for p, Initial residual = 0.00132753, Final residual = 9.12536e-05, No Iterations 3
time step continuity errors : sum local = 0.000143014, global = -4.89585e-18, cumulative = 2.62893e-16
ExecutionTime = 0.36 s  ClockTime = 0 s

Time = 92

smoothSolver:  Solving for Ux, Initial residual = 0.000536078, Final residual = 5.32382e-05, No Iterations 5
smoothSolver:  Solving for Uy, Initial residual = 0.000634814, Final residual = 5.84903e-05, No Iterations 5
GAMG:  Solving for p, Initial residual = 0.00129831, Final residual = 6.5251e-05, No Iterations 3
time step continuity errors : sum local = 0.000109276, global = -1.21803e-17, cumulative = 2.50713e-16
ExecutionTime = 0.36 s  ClockTime = 0 s

Time = 93

smoothSolver:  Solving for Ux, Initial residual = 0.000509295, Final residual = 5.0607e-05, No Iterations 5
smoothSolver:  Solving for Uy, Initial residual = 0.000608092, Final residual = 5.59981e-05, No Iterations 5
GAMG:  Solving for p, Initial residual = 0.00121208, Final residual = 8.32745e-05, No Iterations 3
time step continuity errors : sum local = 0.000130649, global = 2.79013e-17, cumulative = 2.78614e-16
ExecutionTime = 0.36 s  ClockTime = 0 s

Time = 94

smoothSolver:  Solving for Ux, Initial residual = 0.000488673, Final residual = 4.85182e-05, No Iterations 5
smoothSolver:  Solving for Uy, Initial residual = 0.000578441, Final residual = 5.32398e-05, No Iterations 5
GAMG:  Solving for p, Initial residual = 0.00118539, Final residual = 5.94739e-05, No Iterations 3
time step continuity errors : sum local = 9.97189e-05, global = -9.78747e-18, cumulative = 2.68827e-16
ExecutionTime = 0.37 s  ClockTime = 0 s

Time = 95

smoothSolver:  Solving for Ux, Initial residual = 0.000464171, Final residual = 4.61123e-05, No Iterations 5
smoothSolver:  Solving for Uy, Initial residual = 0.000554072, Final residual = 5.09704e-05, No Iterations 5
GAMG:  Solving for p, Initial residual = 0.00110643, Final residual = 7.59584e-05, No Iterations 3
time step continuity errors : sum local = 0.000119287, global = 1.92785e-17, cumulative = 2.88105e-16
ExecutionTime = 0.37 s  ClockTime = 0 s

Time = 96

smoothSolver:  Solving for Ux, Initial residual = 0.000445327, Final residual = 4.42046e-05, No Iterations 5
smoothSolver:  Solving for Uy, Initial residual = 0.000527029, Final residual = 4.84595e-05, No Iterations 5
GAMG:  Solving for p, Initial residual = 0.00108206, Final residual = 5.41834e-05, No Iterations 3
time step continuity errors : sum local = 9.09467e-05, global = 9.63076e-18, cumulative = 2.97736e-16
ExecutionTime = 0.38 s  ClockTime = 0 s

Time = 97

smoothSolver:  Solving for Ux, Initial residual = 0.000422919, Final residual = 4.20049e-05, No Iterations 5
smoothSolver:  Solving for Uy, Initial residual = 0.000504802, Final residual = 4.63906e-05, No Iterations 5
GAMG:  Solving for p, Initial residual = 0.00100977, Final residual = 6.92504e-05, No Iterations 3
time step continuity errors : sum local = 0.00010885, global = -4.73491e-18, cumulative = 2.93001e-16
ExecutionTime = 0.38 s  ClockTime = 0 s

Time = 98

smoothSolver:  Solving for Ux, Initial residual = 0.000405702, Final residual = 4.02626e-05, No Iterations 5
smoothSolver:  Solving for Uy, Initial residual = 0.000480114, Final residual = 4.41049e-05, No Iterations 5
GAMG:  Solving for p, Initial residual = 0.000987479, Final residual = 4.93421e-05, No Iterations 3
time step continuity errors : sum local = 8.29022e-05, global = 2.38694e-17, cumulative = 3.1687e-16
ExecutionTime = 0.38 s  ClockTime = 0 s

Time = 99

smoothSolver:  Solving for Ux, Initial residual = 0.000385212, Final residual = 3.82521e-05, No Iterations 5
smoothSolver:  Solving for Uy, Initial residual = 0.000459832, Final residual = 4.22171e-05, No Iterations 5
GAMG:  Solving for p, Initial residual = 0.000921338, Final residual = 6.31044e-05, No Iterations 3
time step continuity errors : sum local = 9.92697e-05, global = 7.05155e-18, cumulative = 3.23922e-16
ExecutionTime = 0.39 s  ClockTime = 0 s

Time = 100

smoothSolver:  Solving for Ux, Initial residual = 0.0003695, Final residual = 3.66599e-05, No Iterations 5
smoothSolver:  Solving for Uy, Initial residual = 0.000437295, Final residual = 4.01357e-05, No Iterations 5
GAMG:  Solving for p, Initial residual = 0.000900911, Final residual = 4.49167e-05, No Iterations 3
time step continuity errors : sum local = 7.55329e-05, global = -3.3534e-17, cumulative = 2.90388e-16
ExecutionTime = 0.4 s  ClockTime = 0 s

Time = 101

smoothSolver:  Solving for Ux, Initial residual = 0.000350774, Final residual = 3.48229e-05, No Iterations 5
smoothSolver:  Solving for Uy, Initial residual = 0.000418771, Final residual = 3.84137e-05, No Iterations 5
GAMG:  Solving for p, Initial residual = 0.00084046, Final residual = 5.74796e-05, No Iterations 3
time step continuity errors : sum local = 9.04867e-05, global = -2.3484e-17, cumulative = 2.66904e-16
ExecutionTime = 0.4 s  ClockTime = 0 s

Time = 102

smoothSolver:  Solving for Ux, Initial residual = 0.000336422, Final residual = 3.33693e-05, No Iterations 5
smoothSolver:  Solving for Uy, Initial residual = 0.000398204, Final residual = 3.65164e-05, No Iterations 5
GAMG:  Solving for p, Initial residual = 0.000821684, Final residual = 4.08751e-05, No Iterations 3
time step continuity errors : sum local = 6.87898e-05, global = -3.63801e-18, cumulative = 2.63266e-16
ExecutionTime = 0.41 s  ClockTime = 0 s

Time = 103

smoothSolver:  Solving for Ux, Initial residual = 0.000319308, Final residual = 3.16912e-05, No Iterations 5
smoothSolver:  Solving for Uy, Initial residual = 0.000381274, Final residual = 3.49457e-05, No Iterations 5
GAMG:  Solving for p, Initial residual = 0.000766474, Final residual = 5.23351e-05, No Iterations 3
time step continuity errors : sum local = 8.24419e-05, global = 4.3114e-17, cumulative = 3.0638e-16
ExecutionTime = 0.42 s  ClockTime = 0 s

Time = 104

smoothSolver:  Solving for Ux, Initial residual = 0.000306206, Final residual = 3.03639e-05, No Iterations 5
smoothSolver:  Solving for Uy, Initial residual = 0.000362515, Final residual = 3.32155e-05, No Iterations 5
GAMG:  Solving for p, Initial residual = 0.00074923, Final residual = 3.7188e-05, No Iterations 3
time step continuity errors : sum local = 6.26275e-05, global = 2.56058e-17, cumulative = 3.31986e-16
ExecutionTime = 0.42 s  ClockTime = 0 s

Time = 105

smoothSolver:  Solving for Ux, Initial residual = 0.000290575, Final residual = 2.88319e-05, No Iterations 5
smoothSolver:  Solving for Uy, Initial residual = 0.000347042, Final residual = 3.17831e-05, No Iterations 5
GAMG:  Solving for p, Initial residual = 0.000698779, Final residual = 4.76347e-05, No Iterations 3
time step continuity errors : sum local = 7.50814e-05, global = -1.58649e-17, cumulative = 3.16121e-16
ExecutionTime = 0.42 s  ClockTime = 0 s

Time = 106

smoothSolver:  Solving for Ux, Initial residual = 0.000278631, Final residual = 2.76208e-05, No Iterations 5
smoothSolver:  Solving for Uy, Initial residual = 0.000329939, Final residual = 3.02059e-05, No Iterations 5
GAMG:  Solving for p, Initial residual = 0.000682979, Final residual = 3.38266e-05, No Iterations 3
time step continuity errors : sum local = 5.70008e-05, global = 1.43996e-18, cumulative = 3.17561e-16
ExecutionTime = 0.43 s  ClockTime = 0 s

Time = 107

smoothSolver:  Solving for Ux, Initial residual = 0.000264366, Final residual = 2.62228e-05, No Iterations 5
smoothSolver:  Solving for Uy, Initial residual = 0.0003158, Final residual = 2.88989e-05, No Iterations 5
GAMG:  Solving for p, Initial residual = 0.000636894, Final residual = 4.3344e-05, No Iterations 3
time step continuity errors : sum local = 6.83542e-05, global = -1.02449e-17, cumulative = 3.07316e-16
ExecutionTime = 0.43 s  ClockTime = 0 s

Time = 108

smoothSolver:  Solving for Ux, Initial residual = 0.000253468, Final residual = 2.51184e-05, No Iterations 5
smoothSolver:  Solving for Uy, Initial residual = 0.000300209, Final residual = 2.74622e-05, No Iterations 5
GAMG:  Solving for p, Initial residual = 0.000622395, Final residual = 3.07641e-05, No Iterations 3
time step continuity errors : sum local = 5.18675e-05, global = -3.5766e-18, cumulative = 3.03739e-16
ExecutionTime = 0.44 s  ClockTime = 0 s

Time = 109

smoothSolver:  Solving for Ux, Initial residual = 0.000240453, Final residual = 2.38436e-05, No Iterations 5
smoothSolver:  Solving for Uy, Initial residual = 0.000287293, Final residual = 2.62697e-05, No Iterations 5
GAMG:  Solving for p, Initial residual = 0.000580328, Final residual = 3.94304e-05, No Iterations 3
time step continuity errors : sum local = 6.22118e-05, global = 5.96226e-17, cumulative = 3.63362e-16
ExecutionTime = 0.44 s  ClockTime = 0 s

Time = 110

smoothSolver:  Solving for Ux, Initial residual = 0.000230515, Final residual = 2.28371e-05, No Iterations 5
smoothSolver:  Solving for Uy, Initial residual = 0.000273082, Final residual = 2.49613e-05, No Iterations 5
GAMG:  Solving for p, Initial residual = 0.000567014, Final residual = 2.79751e-05, No Iterations 3
time step continuity errors : sum local = 4.71869e-05, global = 1.51407e-17, cumulative = 3.78503e-16
ExecutionTime = 0.44 s  ClockTime = 0 s

Time = 111

smoothSolver:  Solving for Ux, Initial residual = 0.000218649, Final residual = 2.16755e-05, No Iterations 5
smoothSolver:  Solving for Uy, Initial residual = 0.000261296, Final residual = 2.38741e-05, No Iterations 5
GAMG:  Solving for p, Initial residual = 0.000528629, Final residual = 3.58634e-05, No Iterations 3
time step continuity errors : sum local = 5.66078e-05, global = 3.46691e-17, cumulative = 4.13172e-16
ExecutionTime = 0.45 s  ClockTime = 0 s

Time = 112

smoothSolver:  Solving for Ux, Initial residual = 0.000209591, Final residual = 2.07589e-05, No Iterations 5
smoothSolver:  Solving for Uy, Initial residual = 0.000248344, Final residual = 2.26831e-05, No Iterations 5
GAMG:  Solving for p, Initial residual = 0.000516427, Final residual = 2.54364e-05, No Iterations 3
time step continuity errors : sum local = 4.29217e-05, global = 3.23778e-17, cumulative = 4.4555e-16
ExecutionTime = 0.45 s  ClockTime = 0 s

Time = 113

smoothSolver:  Solving for Ux, Initial residual = 0.000198778, Final residual = 1.97011e-05, No Iterations 5
smoothSolver:  Solving for Uy, Initial residual = 0.000237594, Final residual = 2.16926e-05, No Iterations 5
GAMG:  Solving for p, Initial residual = 0.000481399, Final residual = 3.26143e-05, No Iterations 3
time step continuity errors : sum local = 5.14986e-05, global = -6.62719e-17, cumulative = 3.79278e-16
ExecutionTime = 0.45 s  ClockTime = 0 s

Time = 114

smoothSolver:  Solving for Ux, Initial residual = 0.000190527, Final residual = 1.88668e-05, No Iterations 5
smoothSolver:  Solving for Uy, Initial residual = 0.000225799, Final residual = 2.0609e-05, No Iterations 5
GAMG:  Solving for p, Initial residual = 0.000470227, Final residual = 2.31262e-05, No Iterations 3
time step continuity errors : sum local = 3.90365e-05, global = 2.00006e-17, cumulative = 3.99278e-16
ExecutionTime = 0.46 s  ClockTime = 0 s

Time = 115

smoothSolver:  Solving for Ux, Initial residual = 0.00018068, Final residual = 1.79039e-05, No Iterations 5
smoothSolver:  Solving for Uy, Initial residual = 0.000216003, Final residual = 1.97068e-05, No Iterations 5
GAMG:  Solving for p, Initial residual = 0.00043828, Final residual = 2.96562e-05, No Iterations 3
time step continuity errors : sum local = 4.68431e-05, global = -1.50137e-17, cumulative = 3.84265e-16
ExecutionTime = 0.46 s  ClockTime = 0 s

Time = 116

smoothSolver:  Solving for Ux, Initial residual = 0.000173167, Final residual = 1.71446e-05, No Iterations 5
smoothSolver:  Solving for Uy, Initial residual = 0.000205262, Final residual = 1.87214e-05, No Iterations 5
GAMG:  Solving for p, Initial residual = 0.000428057, Final residual = 2.10241e-05, No Iterations 3
time step continuity errors : sum local = 3.54982e-05, global = 2.62432e-17, cumulative = 4.10508e-16
ExecutionTime = 0.46 s  ClockTime = 0 s

Time = 117

smoothSolver:  Solving for Ux, Initial residual = 0.000164205, Final residual = 1.62684e-05, No Iterations 5
smoothSolver:  Solving for Uy, Initial residual = 0.000196339, Final residual = 1.79003e-05, No Iterations 5
GAMG:  Solving for p, Initial residual = 0.00039894, Final residual = 2.6963e-05, No Iterations 3
time step continuity errors : sum local = 4.26017e-05, global = -7.76306e-18, cumulative = 4.02745e-16
ExecutionTime = 0.47 s  ClockTime = 0 s

Time = 118

smoothSolver:  Solving for Ux, Initial residual = 0.000157367, Final residual = 1.55777e-05, No Iterations 5
smoothSolver:  Solving for Uy, Initial residual = 0.000186567, Final residual = 1.70048e-05, No Iterations 5
GAMG:  Solving for p, Initial residual = 0.000389587, Final residual = 1.91113e-05, No Iterations 3
time step continuity errors : sum local = 3.22762e-05, global = -4.14199e-18, cumulative = 3.98603e-16
ExecutionTime = 0.47 s  ClockTime = 0 s

Time = 119

smoothSolver:  Solving for Ux, Initial residual = 0.000149212, Final residual = 1.47806e-05, No Iterations 5
smoothSolver:  Solving for Uy, Initial residual = 0.000178444, Final residual = 1.62578e-05, No Iterations 5
GAMG:  Solving for p, Initial residual = 0.00036306, Final residual = 2.45114e-05, No Iterations 3
time step continuity errors : sum local = 3.8738e-05, global = 4.76308e-17, cumulative = 4.46234e-16
ExecutionTime = 0.47 s  ClockTime = 0 s

Time = 120

smoothSolver:  Solving for Ux, Initial residual = 0.000142991, Final residual = 1.41525e-05, No Iterations 5
smoothSolver:  Solving for Uy, Initial residual = 0.000169555, Final residual = 1.54446e-05, No Iterations 5
GAMG:  Solving for p, Initial residual = 0.000354506, Final residual = 1.73707e-05, No Iterations 3
time step continuity errors : sum local = 2.93423e-05, global = -1.62906e-17, cumulative = 4.29943e-16
ExecutionTime = 0.48 s  ClockTime = 0 s

Time = 121

smoothSolver:  Solving for Ux, Initial residual = 0.00013557, Final residual = 1.34274e-05, No Iterations 5
smoothSolver:  Solving for Uy, Initial residual = 0.000162163, Final residual = 1.47649e-05, No Iterations 5
GAMG:  Solving for p, Initial residual = 0.00033035, Final residual = 2.228e-05, No Iterations 3
time step continuity errors : sum local = 3.52195e-05, global = -2.00535e-18, cumulative = 4.27938e-16
ExecutionTime = 0.48 s  ClockTime = 0 s

Time = 122

smoothSolver:  Solving for Ux, Initial residual = 0.000129914, Final residual = 1.28565e-05, No Iterations 5
smoothSolver:  Solving for Uy, Initial residual = 0.000154081, Final residual = 1.40267e-05, No Iterations 5
GAMG:  Solving for p, Initial residual = 0.00032254, Final residual = 1.57868e-05, No Iterations 3
time step continuity errors : sum local = 2.66708e-05, global = -7.19766e-18, cumulative = 4.2074e-16
ExecutionTime = 0.49 s  ClockTime = 0 s

Time = 123

smoothSolver:  Solving for Ux, Initial residual = 0.000123163, Final residual = 1.2197e-05, No Iterations 5
smoothSolver:  Solving for Uy, Initial residual = 0.000147359, Final residual = 1.34083e-05, No Iterations 5
GAMG:  Solving for p, Initial residual = 0.000300552, Final residual = 2.02493e-05, No Iterations 3
time step continuity errors : sum local = 3.20156e-05, global = -2.49726e-17, cumulative = 3.95767e-16
ExecutionTime = 0.49 s  ClockTime = 0 s

Time = 124

smoothSolver:  Solving for Ux, Initial residual = 0.000118018, Final residual = 1.16781e-05, No Iterations 5
smoothSolver:  Solving for Uy, Initial residual = 0.000140012, Final residual = 1.27381e-05, No Iterations 5
GAMG:  Solving for p, Initial residual = 0.000293421, Final residual = 1.43458e-05, No Iterations 3
time step continuity errors : sum local = 2.42389e-05, global = -1.90106e-17, cumulative = 3.76757e-16
ExecutionTime = 0.49 s  ClockTime = 0 s

Time = 125

smoothSolver:  Solving for Ux, Initial residual = 0.000111879, Final residual = 1.10785e-05, No Iterations 5
smoothSolver:  Solving for Uy, Initial residual = 0.000133896, Final residual = 1.21759e-05, No Iterations 5
GAMG:  Solving for p, Initial residual = 0.000273412, Final residual = 1.84009e-05, No Iterations 3
time step continuity errors : sum local = 2.9098e-05, global = -2.20229e-17, cumulative = 3.54734e-16
ExecutionTime = 0.49 s  ClockTime = 0 s

Time = 126

smoothSolver:  Solving for Ux, Initial residual = 0.0001072, Final residual = 1.06067e-05, No Iterations 5
smoothSolver:  Solving for Uy, Initial residual = 0.000127219, Final residual = 1.15674e-05, No Iterations 5
GAMG:  Solving for p, Initial residual = 0.000266904, Final residual = 1.30347e-05, No Iterations 3
time step continuity errors : sum local = 2.20253e-05, global = 2.3971e-18, cumulative = 3.57131e-16
ExecutionTime = 0.5 s  ClockTime = 0 s

Time = 127

smoothSolver:  Solving for Ux, Initial residual = 0.000101616, Final residual = 1.00615e-05, No Iterations 5
smoothSolver:  Solving for Uy, Initial residual = 0.000121655, Final residual = 1.10562e-05, No Iterations 5
GAMG:  Solving for p, Initial residual = 0.000248695, Final residual = 1.67187e-05, No Iterations 3
time step continuity errors : sum local = 2.64417e-05, global = -3.08394e-17, cumulative = 3.26292e-16
ExecutionTime = 0.5 s  ClockTime = 0 s

Time = 128

smoothSolver:  Solving for Ux, Initial residual = 9.73606e-05, Final residual = 9.63252e-06, No Iterations 5
smoothSolver:  Solving for Uy, Initial residual = 0.000115587, Final residual = 1.05038e-05, No Iterations 5
GAMG:  Solving for p, Initial residual = 0.000242759, Final residual = 1.18418e-05, No Iterations 3
time step continuity errors : sum local = 2.00103e-05, global = -4.81178e-17, cumulative = 2.78174e-16
ExecutionTime = 0.5 s  ClockTime = 0 s

Time = 129

smoothSolver:  Solving for Ux, Initial residual = 9.22825e-05, Final residual = 9.13683e-06, No Iterations 5
smoothSolver:  Solving for Uy, Initial residual = 0.000110526, Final residual = 1.0039e-05, No Iterations 5
GAMG:  Solving for p, Initial residual = 0.000226189, Final residual = 1.51882e-05, No Iterations 3
time step continuity errors : sum local = 2.40239e-05, global = -2.95487e-17, cumulative = 2.48625e-16
ExecutionTime = 0.51 s  ClockTime = 0 s

Time = 130

smoothSolver:  Solving for Ux, Initial residual = 8.8413e-05, Final residual = 8.74679e-06, No Iterations 5
smoothSolver:  Solving for Uy, Initial residual = 0.000105011, Final residual = 9.53745e-06, No Iterations 5
GAMG:  Solving for p, Initial residual = 0.000220776, Final residual = 1.07565e-05, No Iterations 3
time step continuity errors : sum local = 1.81766e-05, global = -1.18563e-17, cumulative = 2.36769e-16
ExecutionTime = 0.51 s  ClockTime = 0 s

Time = 131

smoothSolver:  Solving for Ux, Initial residual = 8.37953e-05, Final residual = 8.29607e-06, No Iterations 5
smoothSolver:  Solving for Uy, Initial residual = 0.000100408, Final residual = 9.11483e-06, No Iterations 5
GAMG:  Solving for p, Initial residual = 0.0002057, Final residual = 1.37957e-05, No Iterations 3
time step continuity errors : sum local = 2.18235e-05, global = -3.12841e-17, cumulative = 2.05485e-16
ExecutionTime = 0.52 s  ClockTime = 0 s

Time = 132

smoothSolver:  Solving for Ux, Initial residual = 8.02767e-05, Final residual = 7.94148e-06, No Iterations 5
smoothSolver:  Solving for Uy, Initial residual = 9.53954e-05, Final residual = 8.65935e-06, No Iterations 5
GAMG:  Solving for p, Initial residual = 0.000200764, Final residual = 9.76958e-06, No Iterations 3
time step continuity errors : sum local = 1.65083e-05, global = 3.74621e-17, cumulative = 2.42947e-16
ExecutionTime = 0.52 s  ClockTime = 0 s

Time = 133

smoothSolver:  Solving for Ux, Initial residual = 7.60782e-05, Final residual = 7.53171e-06, No Iterations 5
smoothSolver:  Solving for Uy, Initial residual = 9.12087e-05, Final residual = 8.27524e-06, No Iterations 5
GAMG:  Solving for p, Initial residual = 0.000187051, Final residual = 1.25288e-05, No Iterations 3
time step continuity errors : sum local = 1.98209e-05, global = 9.88699e-18, cumulative = 2.52834e-16
ExecutionTime = 0.53 s  ClockTime = 0 s

Time = 134

smoothSolver:  Solving for Ux, Initial residual = 7.28788e-05, Final residual = 7.20938e-06, No Iterations 5
smoothSolver:  Solving for Uy, Initial residual = 8.66536e-05, Final residual = 7.8615e-06, No Iterations 5
GAMG:  Solving for p, Initial residual = 0.000182548, Final residual = 8.87195e-06, No Iterations 3
time step continuity errors : sum local = 1.49906e-05, global = 4.60574e-18, cumulative = 2.57439e-16
ExecutionTime = 0.53 s  ClockTime = 0 s

Time = 135

smoothSolver:  Solving for Ux, Initial residual = 6.90624e-05, Final residual = 6.83688e-06, No Iterations 5
smoothSolver:  Solving for Uy, Initial residual = 8.28448e-05, Final residual = 7.5124e-06, No Iterations 5
GAMG:  Solving for p, Initial residual = 0.000170075, Final residual = 1.13765e-05, No Iterations 3
time step continuity errors : sum local = 1.79989e-05, global = 7.16802e-18, cumulative = 2.64607e-16
ExecutionTime = 0.53 s  ClockTime = 0 s

Time = 136

smoothSolver:  Solving for Ux, Initial residual = 6.61535e-05, Final residual = 6.54382e-06, No Iterations 5
smoothSolver:  Solving for Uy, Initial residual = 7.87059e-05, Final residual = 7.13653e-06, No Iterations 5
GAMG:  Solving for p, Initial residual = 0.000165967, Final residual = 8.05572e-06, No Iterations 3
time step continuity errors : sum local = 1.36103e-05, global = 1.30634e-17, cumulative = 2.77671e-16
ExecutionTime = 0.54 s  ClockTime = 0 s

Time = 137

smoothSolver:  Solving for Ux, Initial residual = 6.26848e-05, Final residual = 9.74713e-06, No Iterations 4
smoothSolver:  Solving for Uy, Initial residual = 7.52404e-05, Final residual = 6.81917e-06, No Iterations 5
GAMG:  Solving for p, Initial residual = 0.000148718, Final residual = 1.02589e-05, No Iterations 3
time step continuity errors : sum local = 1.62253e-05, global = -3.35097e-17, cumulative = 2.44161e-16
ExecutionTime = 0.54 s  ClockTime = 0 s

Time = 138

smoothSolver:  Solving for Ux, Initial residual = 6.10578e-05, Final residual = 9.50508e-06, No Iterations 4
smoothSolver:  Solving for Uy, Initial residual = 7.04607e-05, Final residual = 6.37395e-06, No Iterations 5
GAMG:  Solving for p, Initial residual = 0.000146923, Final residual = 7.374e-06, No Iterations 3
time step continuity errors : sum local = 1.2364e-05, global = -5.71112e-17, cumulative = 1.8705e-16
ExecutionTime = 0.55 s  ClockTime = 0 s

Time = 139

smoothSolver:  Solving for Ux, Initial residual = 5.84819e-05, Final residual = 9.12019e-06, No Iterations 4
smoothSolver:  Solving for Uy, Initial residual = 6.67152e-05, Final residual = 9.63779e-06, No Iterations 4
GAMG:  Solving for p, Initial residual = 0.000133918, Final residual = 8.56714e-06, No Iterations 3
time step continuity errors : sum local = 1.35597e-05, global = -7.85867e-17, cumulative = 1.08463e-16
ExecutionTime = 0.55 s  ClockTime = 0 s

Time = 140

smoothSolver:  Solving for Ux, Initial residual = 5.54166e-05, Final residual = 8.64198e-06, No Iterations 4
smoothSolver:  Solving for Uy, Initial residual = 6.43526e-05, Final residual = 9.33607e-06, No Iterations 4
GAMG:  Solving for p, Initial residual = 0.000130668, Final residual = 5.98467e-06, No Iterations 3
time step continuity errors : sum local = 1.01891e-05, global = 1.42651e-17, cumulative = 1.22728e-16
ExecutionTime = 0.55 s  ClockTime = 0 s

Time = 141

smoothSolver:  Solving for Ux, Initial residual = 5.23001e-05, Final residual = 8.1637e-06, No Iterations 4
smoothSolver:  Solving for Uy, Initial residual = 6.21746e-05, Final residual = 9.02519e-06, No Iterations 4
GAMG:  Solving for p, Initial residual = 0.000122602, Final residual = 8.17885e-06, No Iterations 3
time step continuity errors : sum local = 1.29508e-05, global = 3.73086e-17, cumulative = 1.60037e-16
ExecutionTime = 0.56 s  ClockTime = 0 s

Time = 142

smoothSolver:  Solving for Ux, Initial residual = 5.01616e-05, Final residual = 7.82722e-06, No Iterations 4
smoothSolver:  Solving for Uy, Initial residual = 5.9344e-05, Final residual = 8.61757e-06, No Iterations 4
GAMG:  Solving for p, Initial residual = 0.000120061, Final residual = 5.86941e-06, No Iterations 3
time step continuity errors : sum local = 9.91962e-06, global = 3.66554e-17, cumulative = 1.96692e-16
ExecutionTime = 0.56 s  ClockTime = 0 s

Time = 143

smoothSolver:  Solving for Ux, Initial residual = 4.76723e-05, Final residual = 7.44576e-06, No Iterations 4
smoothSolver:  Solving for Uy, Initial residual = 5.68667e-05, Final residual = 8.25225e-06, No Iterations 4
GAMG:  Solving for p, Initial residual = 0.000112046, Final residual = 7.52277e-06, No Iterations 3
time step continuity errors : sum local = 1.19054e-05, global = -3.00707e-17, cumulative = 1.66622e-16
ExecutionTime = 0.56 s  ClockTime = 0 s

Time = 144

smoothSolver:  Solving for Ux, Initial residual = 4.57573e-05, Final residual = 7.14238e-06, No Iterations 4
smoothSolver:  Solving for Uy, Initial residual = 5.41815e-05, Final residual = 7.86864e-06, No Iterations 4
GAMG:  Solving for p, Initial residual = 0.00010934, Final residual = 5.32795e-06, No Iterations 3
time step continuity errors : sum local = 8.99338e-06, global = -5.18617e-17, cumulative = 1.1476e-16
ExecutionTime = 0.56 s  ClockTime = 0 s

Time = 145

smoothSolver:  Solving for Ux, Initial residual = 4.34916e-05, Final residual = 6.79527e-06, No Iterations 4
smoothSolver:  Solving for Uy, Initial residual = 5.19024e-05, Final residual = 7.53455e-06, No Iterations 4
GAMG:  Solving for p, Initial residual = 0.000102123, Final residual = 6.81683e-06, No Iterations 3
time step continuity errors : sum local = 1.07844e-05, global = -1.20861e-17, cumulative = 1.02674e-16
ExecutionTime = 0.57 s  ClockTime = 0 s

Time = 146

smoothSolver:  Solving for Ux, Initial residual = 4.17443e-05, Final residual = 6.51824e-06, No Iterations 4
smoothSolver:  Solving for Uy, Initial residual = 4.94616e-05, Final residual = 7.18489e-06, No Iterations 4
GAMG:  Solving for p, Initial residual = 9.97159e-05, Final residual = 4.83543e-06, No Iterations 3
time step continuity errors : sum local = 8.159e-06, global = 4.46344e-17, cumulative = 1.47308e-16
ExecutionTime = 0.57 s  ClockTime = 0 s

Time = 147

smoothSolver:  Solving for Ux, Initial residual = 3.96741e-05, Final residual = 9.75558e-06, No Iterations 3
smoothSolver:  Solving for Uy, Initial residual = 4.73916e-05, Final residual = 6.87971e-06, No Iterations 4
GAMG:  Solving for p, Initial residual = 8.77786e-05, Final residual = 6.12509e-06, No Iterations 3
time step continuity errors : sum local = 9.68412e-06, global = -1.92044e-17, cumulative = 1.28104e-16
ExecutionTime = 0.57 s  ClockTime = 0 s

Time = 148

smoothSolver:  Solving for Ux, Initial residual = 3.90997e-05, Final residual = 9.62614e-06, No Iterations 3
smoothSolver:  Solving for Uy, Initial residual = 4.41396e-05, Final residual = 6.39623e-06, No Iterations 4
GAMG:  Solving for p, Initial residual = 8.68215e-05, Final residual = 4.46715e-06, No Iterations 3
time step continuity errors : sum local = 7.43958e-06, global = -1.8802e-17, cumulative = 1.09302e-16
ExecutionTime = 0.58 s  ClockTime = 0 s

Time = 149

smoothSolver:  Solving for Ux, Initial residual = 3.78353e-05, Final residual = 9.33497e-06, No Iterations 3
smoothSolver:  Solving for Uy, Initial residual = 4.16069e-05, Final residual = 9.64832e-06, No Iterations 3
GAMG:  Solving for p, Initial residual = 7.80197e-05, Final residual = 4.86383e-06, No Iterations 3
time step continuity errors : sum local = 7.69415e-06, global = -2.80601e-17, cumulative = 8.12417e-17
ExecutionTime = 0.58 s  ClockTime = 0 s

Time = 150

smoothSolver:  Solving for Ux, Initial residual = 3.57324e-05, Final residual = 8.8211e-06, No Iterations 3
smoothSolver:  Solving for Uy, Initial residual = 4.06052e-05, Final residual = 9.46663e-06, No Iterations 3
GAMG:  Solving for p, Initial residual = 7.61666e-05, Final residual = 3.31031e-06, No Iterations 3
time step continuity errors : sum local = 5.66778e-06, global = 2.13304e-17, cumulative = 1.02572e-16
ExecutionTime = 0.59 s  ClockTime = 0 s

Time = 151

smoothSolver:  Solving for Ux, Initial residual = 3.37222e-05, Final residual = 8.33244e-06, No Iterations 3
smoothSolver:  Solving for Uy, Initial residual = 3.95927e-05, Final residual = 9.24027e-06, No Iterations 3
GAMG:  Solving for p, Initial residual = 7.19922e-05, Final residual = 4.76073e-06, No Iterations 3
time step continuity errors : sum local = 7.54158e-06, global = -2.53189e-17, cumulative = 7.72533e-17
ExecutionTime = 0.59 s  ClockTime = 0 s

Time = 152

smoothSolver:  Solving for Ux, Initial residual = 3.24054e-05, Final residual = 8.00576e-06, No Iterations 3
smoothSolver:  Solving for Uy, Initial residual = 3.8047e-05, Final residual = 8.88724e-06, No Iterations 3
GAMG:  Solving for p, Initial residual = 7.08337e-05, Final residual = 3.43899e-06, No Iterations 3
time step continuity errors : sum local = 5.81668e-06, global = -3.483e-17, cumulative = 4.24233e-17
ExecutionTime = 0.6 s  ClockTime = 0 s

Time = 153

smoothSolver:  Solving for Ux, Initial residual = 3.0915e-05, Final residual = 7.64467e-06, No Iterations 3
smoothSolver:  Solving for Uy, Initial residual = 3.6637e-05, Final residual = 8.55199e-06, No Iterations 3
GAMG:  Solving for p, Initial residual = 6.64482e-05, Final residual = 4.46508e-06, No Iterations 3
time step continuity errors : sum local = 7.06656e-06, global = 1.22407e-17, cumulative = 5.4664e-17
ExecutionTime = 0.6 s  ClockTime = 0 s

Time = 154

smoothSolver:  Solving for Ux, Initial residual = 2.97683e-05, Final residual = 7.35689e-06, No Iterations 3
smoothSolver:  Solving for Uy, Initial residual = 3.50903e-05, Final residual = 8.19948e-06, No Iterations 3
GAMG:  Solving for p, Initial residual = 6.49939e-05, Final residual = 3.16573e-06, No Iterations 3
time step continuity errors : sum local = 5.33941e-06, global = -5.0589e-18, cumulative = 4.96051e-17
ExecutionTime = 0.6 s  ClockTime = 0 s

Time = 155

smoothSolver:  Solving for Ux, Initial residual = 2.84248e-05, Final residual = 7.03149e-06, No Iterations 3
smoothSolver:  Solving for Uy, Initial residual = 3.37492e-05, Final residual = 7.88287e-06, No Iterations 3
GAMG:  Solving for p, Initial residual = 6.10056e-05, Final residual = 4.06689e-06, No Iterations 3
time step continuity errors : sum local = 6.43198e-06, global = -2.0458e-17, cumulative = 2.91471e-17
ExecutionTime = 0.61 s  ClockTime = 0 s

Time = 156

smoothSolver:  Solving for Ux, Initial residual = 2.7375e-05, Final residual = 6.76771e-06, No Iterations 3
smoothSolver:  Solving for Uy, Initial residual = 3.23235e-05, Final residual = 7.55655e-06, No Iterations 3
GAMG:  Solving for p, Initial residual = 5.97074e-05, Final residual = 2.88756e-06, No Iterations 3
time step continuity errors : sum local = 4.86559e-06, global = 3.73817e-17, cumulative = 6.65288e-17
ExecutionTime = 0.61 s  ClockTime = 0 s

Time = 157

smoothSolver:  Solving for Ux, Initial residual = 2.61397e-05, Final residual = 6.46764e-06, No Iterations 3
smoothSolver:  Solving for Uy, Initial residual = 3.10919e-05, Final residual = 7.26432e-06, No Iterations 3
GAMG:  Solving for p, Initial residual = 5.60934e-05, Final residual = 3.71973e-06, No Iterations 3
time step continuity errors : sum local = 5.88068e-06, global = 1.17685e-17, cumulative = 7.82972e-17
ExecutionTime = 0.61 s  ClockTime = 0 s

Time = 158

smoothSolver:  Solving for Ux, Initial residual = 2.51699e-05, Final residual = 9.81666e-06, No Iterations 2
smoothSolver:  Solving for Uy, Initial residual = 2.97809e-05, Final residual = 6.9631e-06, No Iterations 3
GAMG:  Solving for p, Initial residual = 5.01478e-05, Final residual = 2.90193e-06, No Iterations 3
time step continuity errors : sum local = 4.74822e-06, global = -7.70165e-17, cumulative = 1.28077e-18
ExecutionTime = 0.62 s  ClockTime = 0 s

Time = 159

smoothSolver:  Solving for Ux, Initial residual = 2.51104e-05, Final residual = 9.81983e-06, No Iterations 2
smoothSolver:  Solving for Uy, Initial residual = 2.75293e-05, Final residual = 6.41797e-06, No Iterations 3
GAMG:  Solving for p, Initial residual = 4.74636e-05, Final residual = 3.10912e-06, No Iterations 3
time step continuity errors : sum local = 4.88333e-06, global = 2.54036e-17, cumulative = 2.66843e-17
ExecutionTime = 0.62 s  ClockTime = 0 s

Time = 160

smoothSolver:  Solving for Ux, Initial residual = 2.47993e-05, Final residual = 9.70142e-06, No Iterations 2
smoothSolver:  Solving for Uy, Initial residual = 2.57481e-05, Final residual = 9.64576e-06, No Iterations 2
GAMG:  Solving for p, Initial residual = 4.25274e-05, Final residual = 1.61282e-06, No Iterations 3
time step continuity errors : sum local = 2.7924e-06, global = 2.16258e-17, cumulative = 4.83102e-17
ExecutionTime = 0.62 s  ClockTime = 0 s

Time = 161

smoothSolver:  Solving for Ux, Initial residual = 2.32379e-05, Final residual = 9.11102e-06, No Iterations 2
smoothSolver:  Solving for Uy, Initial residual = 2.56314e-05, Final residual = 9.64138e-06, No Iterations 2
GAMG:  Solving for p, Initial residual = 4.02604e-05, Final residual = 2.48188e-06, No Iterations 3
time step continuity errors : sum local = 3.93691e-06, global = 1.29278e-17, cumulative = 6.1238e-17
ExecutionTime = 0.63 s  ClockTime = 0 s

Time = 162

smoothSolver:  Solving for Ux, Initial residual = 2.21876e-05, Final residual = 8.70209e-06, No Iterations 2
smoothSolver:  Solving for Uy, Initial residual = 2.51431e-05, Final residual = 9.48304e-06, No Iterations 2
GAMG:  Solving for p, Initial residual = 4.00977e-05, Final residual = 1.75535e-06, No Iterations 3
time step continuity errors : sum local = 3.01229e-06, global = -9.32054e-18, cumulative = 5.19175e-17
ExecutionTime = 0.63 s  ClockTime = 0 s

Time = 163

smoothSolver:  Solving for Ux, Initial residual = 2.1144e-05, Final residual = 8.29794e-06, No Iterations 2
smoothSolver:  Solving for Uy, Initial residual = 2.4594e-05, Final residual = 9.27682e-06, No Iterations 2
GAMG:  Solving for p, Initial residual = 3.80966e-05, Final residual = 2.53263e-06, No Iterations 3
time step continuity errors : sum local = 4.01472e-06, global = -5.59275e-17, cumulative = -4.01001e-18
ExecutionTime = 0.63 s  ClockTime = 0 s

Time = 164

smoothSolver:  Solving for Ux, Initial residual = 2.04168e-05, Final residual = 8.01039e-06, No Iterations 2
smoothSolver:  Solving for Uy, Initial residual = 2.38099e-05, Final residual = 8.99131e-06, No Iterations 2
GAMG:  Solving for p, Initial residual = 3.75868e-05, Final residual = 1.80476e-06, No Iterations 3
time step continuity errors : sum local = 3.05727e-06, global = -6.53232e-17, cumulative = -6.93332e-17
ExecutionTime = 0.64 s  ClockTime = 0 s

Time = 165

smoothSolver:  Solving for Ux, Initial residual = 1.9607e-05, Final residual = 7.69844e-06, No Iterations 2
smoothSolver:  Solving for Uy, Initial residual = 2.30844e-05, Final residual = 8.71404e-06, No Iterations 2
GAMG:  Solving for p, Initial residual = 3.55394e-05, Final residual = 2.38062e-06, No Iterations 3
time step continuity errors : sum local = 3.76802e-06, global = 3.71879e-17, cumulative = -3.21453e-17
ExecutionTime = 0.64 s  ClockTime = 0 s

Time = 166

smoothSolver:  Solving for Ux, Initial residual = 1.89779e-05, Final residual = 7.44809e-06, No Iterations 2
smoothSolver:  Solving for Uy, Initial residual = 2.22853e-05, Final residual = 8.42088e-06, No Iterations 2
GAMG:  Solving for p, Initial residual = 3.49366e-05, Final residual = 1.68997e-06, No Iterations 3
time step continuity errors : sum local = 2.84878e-06, global = -3.02592e-17, cumulative = -6.24045e-17
ExecutionTime = 0.64 s  ClockTime = 0 s

Time = 167

smoothSolver:  Solving for Ux, Initial residual = 1.82534e-05, Final residual = 7.16901e-06, No Iterations 2
smoothSolver:  Solving for Uy, Initial residual = 2.15742e-05, Final residual = 8.14891e-06, No Iterations 2
GAMG:  Solving for p, Initial residual = 3.30599e-05, Final residual = 2.19323e-06, No Iterations 3
time step continuity errors : sum local = 3.46716e-06, global = 6.18895e-17, cumulative = -5.14942e-19
ExecutionTime = 0.64 s  ClockTime = 0 s

Time = 168

smoothSolver:  Solving for Ux, Initial residual = 1.76748e-05, Final residual = 6.93835e-06, No Iterations 2
smoothSolver:  Solving for Uy, Initial residual = 2.08199e-05, Final residual = 7.87053e-06, No Iterations 2
[...]
ExecutionTime = 1.64 s  ClockTime = 1 s

Time = 537

smoothSolver:  Solving for Ux, Initial residual = 1.04395e-06, Final residual = 1.04395e-06, No Iterations 0
smoothSolver:  Solving for Uy, Initial residual = 1.2921e-06, Final residual = 1.2921e-06, No Iterations 0
GAMG:  Solving for p, Initial residual = 7.12797e-07, Final residual = 7.12797e-07, No Iterations 0
time step continuity errors : sum local = 1.15986e-06, global = -2.73973e-17, cumulative = -3.95675e-16
ExecutionTime = 1.64 s  ClockTime = 1 s

Time = 538

smoothSolver:  Solving for Ux, Initial residual = 1.04511e-06, Final residual = 1.04511e-06, No Iterations 0
smoothSolver:  Solving for Uy, Initial residual = 1.28487e-06, Final residual = 1.28487e-06, No Iterations 0
GAMG:  Solving for p, Initial residual = 1.02298e-06, Final residual = 3.50692e-07, No Iterations 1
time step continuity errors : sum local = 6.00385e-07, global = -6.30976e-17, cumulative = -4.58772e-16
ExecutionTime = 1.65 s  ClockTime = 1 s

Time = 539

smoothSolver:  Solving for Ux, Initial residual = 1.02655e-06, Final residual = 1.02655e-06, No Iterations 0
smoothSolver:  Solving for Uy, Initial residual = 1.27676e-06, Final residual = 1.27676e-06, No Iterations 0
GAMG:  Solving for p, Initial residual = 6.17955e-07, Final residual = 6.17955e-07, No Iterations 0
time step continuity errors : sum local = 1.01465e-06, global = -1.84441e-18, cumulative = -4.60617e-16
ExecutionTime = 1.65 s  ClockTime = 1 s

Time = 540

smoothSolver:  Solving for Ux, Initial residual = 1.02835e-06, Final residual = 1.02835e-06, No Iterations 0
smoothSolver:  Solving for Uy, Initial residual = 1.26958e-06, Final residual = 1.26958e-06, No Iterations 0
GAMG:  Solving for p, Initial residual = 9.18676e-07, Final residual = 9.18676e-07, No Iterations 0
time step continuity errors : sum local = 1.48183e-06, global = -6.11484e-17, cumulative = -5.21765e-16
ExecutionTime = 1.65 s  ClockTime = 1 s

Time = 541

smoothSolver:  Solving for Ux, Initial residual = 1.03089e-06, Final residual = 1.03089e-06, No Iterations 0
smoothSolver:  Solving for Uy, Initial residual = 1.26498e-06, Final residual = 1.26498e-06, No Iterations 0
GAMG:  Solving for p, Initial residual = 1.24759e-06, Final residual = 4.14183e-07, No Iterations 1
time step continuity errors : sum local = 7.01487e-07, global = 3.71297e-17, cumulative = -4.84636e-16
ExecutionTime = 1.65 s  ClockTime = 1 s

Time = 542

smoothSolver:  Solving for Ux, Initial residual = 1.00988e-06, Final residual = 1.00988e-06, No Iterations 0
smoothSolver:  Solving for Uy, Initial residual = 1.25306e-06, Final residual = 1.25306e-06, No Iterations 0
GAMG:  Solving for p, Initial residual = 6.85198e-07, Final residual = 6.85198e-07, No Iterations 0
time step continuity errors : sum local = 1.12151e-06, global = 1.89714e-17, cumulative = -4.65664e-16
ExecutionTime = 1.66 s  ClockTime = 1 s

Time = 543

smoothSolver:  Solving for Ux, Initial residual = 1.011e-06, Final residual = 1.011e-06, No Iterations 0
smoothSolver:  Solving for Uy, Initial residual = 1.24592e-06, Final residual = 1.24592e-06, No Iterations 0
GAMG:  Solving for p, Initial residual = 9.84072e-07, Final residual = 9.84072e-07, No Iterations 0
time step continuity errors : sum local = 1.58582e-06, global = 3.33403e-17, cumulative = -4.32324e-16
ExecutionTime = 1.66 s  ClockTime = 1 s

Time = 544

smoothSolver:  Solving for Ux, Initial residual = 1.01358e-06, Final residual = 1.01358e-06, No Iterations 0
smoothSolver:  Solving for Uy, Initial residual = 1.24163e-06, Final residual = 1.24163e-06, No Iterations 0
GAMG:  Solving for p, Initial residual = 1.31023e-06, Final residual = 4.39133e-07, No Iterations 1
time step continuity errors : sum local = 7.42849e-07, global = -1.42513e-18, cumulative = -4.33749e-16
ExecutionTime = 1.66 s  ClockTime = 1 s

Time = 545

smoothSolver:  Solving for Ux, Initial residual = 9.91202e-07, Final residual = 9.91202e-07, No Iterations 0
smoothSolver:  Solving for Uy, Initial residual = 1.229e-06, Final residual = 1.229e-06, No Iterations 0
GAMG:  Solving for p, Initial residual = 7.03464e-07, Final residual = 7.03464e-07, No Iterations 0
time step continuity errors : sum local = 1.15242e-06, global = -2.12266e-17, cumulative = -4.54976e-16
ExecutionTime = 1.66 s  ClockTime = 1 s

Time = 546

smoothSolver:  Solving for Ux, Initial residual = 9.92168e-07, Final residual = 9.92168e-07, No Iterations 0
smoothSolver:  Solving for Uy, Initial residual = 1.22173e-06, Final residual = 1.22173e-06, No Iterations 0
GAMG:  Solving for p, Initial residual = 9.95101e-07, Final residual = 9.95101e-07, No Iterations 0
time step continuity errors : sum local = 1.60548e-06, global = 3.00813e-17, cumulative = -4.24894e-16
ExecutionTime = 1.67 s  ClockTime = 1 s

Time = 547

smoothSolver:  Solving for Ux, Initial residual = 9.94654e-07, Final residual = 9.94654e-07, No Iterations 0
smoothSolver:  Solving for Uy, Initial residual = 1.21748e-06, Final residual = 1.21748e-06, No Iterations 0
GAMG:  Solving for p, Initial residual = 1.31327e-06, Final residual = 4.42952e-07, No Iterations 1
time step continuity errors : sum local = 7.51415e-07, global = 6.47451e-18, cumulative = -4.1842e-16
ExecutionTime = 1.67 s  ClockTime = 1 s

Time = 548

smoothSolver:  Solving for Ux, Initial residual = 9.7169e-07, Final residual = 9.7169e-07, No Iterations 0
smoothSolver:  Solving for Uy, Initial residual = 1.20553e-06, Final residual = 1.20553e-06, No Iterations 0
GAMG:  Solving for p, Initial residual = 6.99183e-07, Final residual = 6.99183e-07, No Iterations 0
time step continuity errors : sum local = 1.14837e-06, global = 2.42558e-17, cumulative = -3.94164e-16
ExecutionTime = 1.67 s  ClockTime = 1 s

Time = 549

smoothSolver:  Solving for Ux, Initial residual = 9.72563e-07, Final residual = 9.72563e-07, No Iterations 0
smoothSolver:  Solving for Uy, Initial residual = 1.19813e-06, Final residual = 1.19813e-06, No Iterations 0
GAMG:  Solving for p, Initial residual = 9.82589e-07, Final residual = 9.82589e-07, No Iterations 0
time step continuity errors : sum local = 1.58863e-06, global = 1.14297e-17, cumulative = -3.82734e-16
ExecutionTime = 1.67 s  ClockTime = 1 s

Time = 550

smoothSolver:  Solving for Ux, Initial residual = 9.74991e-07, Final residual = 9.74991e-07, No Iterations 0
smoothSolver:  Solving for Uy, Initial residual = 1.19385e-06, Final residual = 1.19385e-06, No Iterations 0
GAMG:  Solving for p, Initial residual = 1.29212e-06, Final residual = 4.36247e-07, No Iterations 1
time step continuity errors : sum local = 7.43591e-07, global = 3.91541e-17, cumulative = -3.4358e-16
ExecutionTime = 1.68 s  ClockTime = 1 s

Time = 551

smoothSolver:  Solving for Ux, Initial residual = 9.5199e-07, Final residual = 9.5199e-07, No Iterations 0
smoothSolver:  Solving for Uy, Initial residual = 1.18292e-06, Final residual = 1.18292e-06, No Iterations 0
GAMG:  Solving for p, Initial residual = 6.85014e-07, Final residual = 6.85014e-07, No Iterations 0
time step continuity errors : sum local = 1.12894e-06, global = -3.90482e-17, cumulative = -3.82628e-16
ExecutionTime = 1.68 s  ClockTime = 1 s

Time = 552

smoothSolver:  Solving for Ux, Initial residual = 9.52807e-07, Final residual = 9.52807e-07, No Iterations 0
smoothSolver:  Solving for Uy, Initial residual = 1.17547e-06, Final residual = 1.17547e-06, No Iterations 0
GAMG:  Solving for p, Initial residual = 9.60633e-07, Final residual = 9.60633e-07, No Iterations 0
time step continuity errors : sum local = 1.5571e-06, global = -1.7e-17, cumulative = -3.99628e-16
ExecutionTime = 1.69 s  ClockTime = 1 s

Time = 553

smoothSolver:  Solving for Ux, Initial residual = 9.55186e-07, Final residual = 9.55186e-07, No Iterations 0
smoothSolver:  Solving for Uy, Initial residual = 1.17117e-06, Final residual = 1.17117e-06, No Iterations 0
GAMG:  Solving for p, Initial residual = 1.26202e-06, Final residual = 4.24976e-07, No Iterations 1
time step continuity errors : sum local = 7.28582e-07, global = 3.10893e-17, cumulative = -3.68539e-16
ExecutionTime = 1.69 s  ClockTime = 1 s

Time = 554

smoothSolver:  Solving for Ux, Initial residual = 9.32504e-07, Final residual = 9.32504e-07, No Iterations 0
smoothSolver:  Solving for Uy, Initial residual = 1.1611e-06, Final residual = 1.1611e-06, No Iterations 0
GAMG:  Solving for p, Initial residual = 6.67357e-07, Final residual = 6.67357e-07, No Iterations 0
time step continuity errors : sum local = 1.10404e-06, global = -6.41575e-17, cumulative = -4.32697e-16
ExecutionTime = 1.69 s  ClockTime = 1 s

Time = 555

smoothSolver:  Solving for Ux, Initial residual = 9.33286e-07, Final residual = 9.33286e-07, No Iterations 0
smoothSolver:  Solving for Uy, Initial residual = 1.15367e-06, Final residual = 1.15367e-06, No Iterations 0
GAMG:  Solving for p, Initial residual = 9.35984e-07, Final residual = 9.35984e-07, No Iterations 0
time step continuity errors : sum local = 1.52133e-06, global = -1.85172e-17, cumulative = -4.51214e-16
ExecutionTime = 1.69 s  ClockTime = 1 s

Time = 556

smoothSolver:  Solving for Ux, Initial residual = 9.35626e-07, Final residual = 9.35626e-07, No Iterations 0
smoothSolver:  Solving for Uy, Initial residual = 1.14936e-06, Final residual = 1.14936e-06, No Iterations 0
GAMG:  Solving for p, Initial residual = 1.22999e-06, Final residual = 5.19033e-07, No Iterations 1
time step continuity errors : sum local = 8.21407e-07, global = -1.00299e-17, cumulative = -4.61244e-16
ExecutionTime = 1.69 s  ClockTime = 1 s

Time = 557

smoothSolver:  Solving for Ux, Initial residual = 9.20153e-07, Final residual = 9.20153e-07, No Iterations 0
smoothSolver:  Solving for Uy, Initial residual = 1.15259e-06, Final residual = 1.15259e-06, No Iterations 0
GAMG:  Solving for p, Initial residual = 7.79806e-07, Final residual = 7.79806e-07, No Iterations 0
time step continuity errors : sum local = 1.22745e-06, global = -2.75497e-17, cumulative = -4.88793e-16
ExecutionTime = 1.69 s  ClockTime = 1 s

Time = 558

smoothSolver:  Solving for Ux, Initial residual = 9.1553e-07, Final residual = 9.1553e-07, No Iterations 0
smoothSolver:  Solving for Uy, Initial residual = 1.13953e-06, Final residual = 1.13953e-06, No Iterations 0
GAMG:  Solving for p, Initial residual = 1.04741e-06, Final residual = 3.60146e-07, No Iterations 1
time step continuity errors : sum local = 5.83361e-07, global = -1.67183e-18, cumulative = -4.90465e-16
ExecutionTime = 1.7 s  ClockTime = 1 s

Time = 559

smoothSolver:  Solving for Ux, Initial residual = 8.93708e-07, Final residual = 8.93708e-07, No Iterations 0
smoothSolver:  Solving for Uy, Initial residual = 1.13365e-06, Final residual = 1.13365e-06, No Iterations 0
GAMG:  Solving for p, Initial residual = 5.88594e-07, Final residual = 5.88594e-07, No Iterations 0
time step continuity errors : sum local = 9.38659e-07, global = 4.53904e-18, cumulative = -4.85926e-16
ExecutionTime = 1.7 s  ClockTime = 1 s

Time = 560

smoothSolver:  Solving for Ux, Initial residual = 8.9421e-07, Final residual = 8.9421e-07, No Iterations 0
smoothSolver:  Solving for Uy, Initial residual = 1.12565e-06, Final residual = 1.12565e-06, No Iterations 0
GAMG:  Solving for p, Initial residual = 8.42793e-07, Final residual = 8.42793e-07, No Iterations 0
time step continuity errors : sum local = 1.33368e-06, global = 1.49311e-17, cumulative = -4.70995e-16
ExecutionTime = 1.7 s  ClockTime = 1 s

Time = 561

smoothSolver:  Solving for Ux, Initial residual = 8.96028e-07, Final residual = 8.96028e-07, No Iterations 0
smoothSolver:  Solving for Uy, Initial residual = 1.1207e-06, Final residual = 1.1207e-06, No Iterations 0
GAMG:  Solving for p, Initial residual = 1.12249e-06, Final residual = 3.78927e-07, No Iterations 1
time step continuity errors : sum local = 6.15993e-07, global = -1.00331e-17, cumulative = -4.81028e-16
ExecutionTime = 1.7 s  ClockTime = 1 s

Time = 562

smoothSolver:  Solving for Ux, Initial residual = 8.76644e-07, Final residual = 8.76644e-07, No Iterations 0
smoothSolver:  Solving for Uy, Initial residual = 1.11166e-06, Final residual = 1.11166e-06, No Iterations 0
GAMG:  Solving for p, Initial residual = 6.09603e-07, Final residual = 6.09603e-07, No Iterations 0
time step continuity errors : sum local = 9.74457e-07, global = 3.746e-18, cumulative = -4.77282e-16
ExecutionTime = 1.7 s  ClockTime = 1 s

Time = 563

smoothSolver:  Solving for Ux, Initial residual = 8.77258e-07, Final residual = 8.77258e-07, No Iterations 0
smoothSolver:  Solving for Uy, Initial residual = 1.10445e-06, Final residual = 1.10445e-06, No Iterations 0
GAMG:  Solving for p, Initial residual = 8.64591e-07, Final residual = 8.64591e-07, No Iterations 0
time step continuity errors : sum local = 1.3707e-06, global = -5.40714e-17, cumulative = -5.31354e-16
ExecutionTime = 1.7 s  ClockTime = 1 s

Time = 564

smoothSolver:  Solving for Ux, Initial residual = 8.7934e-07, Final residual = 8.7934e-07, No Iterations 0
smoothSolver:  Solving for Uy, Initial residual = 1.1001e-06, Final residual = 1.1001e-06, No Iterations 0
GAMG:  Solving for p, Initial residual = 1.1433e-06, Final residual = 3.86319e-07, No Iterations 1
time step continuity errors : sum local = 6.29655e-07, global = -4.56763e-18, cumulative = -5.35921e-16
ExecutionTime = 1.72 s  ClockTime = 1 s

Time = 565

smoothSolver:  Solving for Ux, Initial residual = 8.60201e-07, Final residual = 8.60201e-07, No Iterations 0
smoothSolver:  Solving for Uy, Initial residual = 1.08948e-06, Final residual = 1.08948e-06, No Iterations 0
GAMG:  Solving for p, Initial residual = 6.13719e-07, Final residual = 6.13719e-07, No Iterations 0
time step continuity errors : sum local = 9.8235e-07, global = 7.08331e-19, cumulative = -5.35213e-16
ExecutionTime = 1.72 s  ClockTime = 1 s

Time = 566

smoothSolver:  Solving for Ux, Initial residual = 8.60863e-07, Final residual = 8.60863e-07, No Iterations 0
smoothSolver:  Solving for Uy, Initial residual = 1.08254e-06, Final residual = 1.08254e-06, No Iterations 0
GAMG:  Solving for p, Initial residual = 8.64556e-07, Final residual = 8.64556e-07, No Iterations 0
time step continuity errors : sum local = 1.37217e-06, global = -4.67043e-17, cumulative = -5.81917e-16
ExecutionTime = 1.72 s  ClockTime = 1 s

Time = 567

smoothSolver:  Solving for Ux, Initial residual = 8.62905e-07, Final residual = 8.62905e-07, No Iterations 0
smoothSolver:  Solving for Uy, Initial residual = 1.07842e-06, Final residual = 1.07842e-06, No Iterations 0
GAMG:  Solving for p, Initial residual = 1.13884e-06, Final residual = 3.8557e-07, No Iterations 1
time step continuity errors : sum local = 6.30434e-07, global = 2.42749e-17, cumulative = -5.57642e-16
ExecutionTime = 1.72 s  ClockTime = 1 s

Time = 568

smoothSolver:  Solving for Ux, Initial residual = 8.43965e-07, Final residual = 8.43965e-07, No Iterations 0
smoothSolver:  Solving for Uy, Initial residual = 1.06739e-06, Final residual = 1.06739e-06, No Iterations 0
GAMG:  Solving for p, Initial residual = 6.08041e-07, Final residual = 6.08041e-07, No Iterations 0
time step continuity errors : sum local = 9.75296e-07, global = -1.17843e-18, cumulative = -5.58821e-16
ExecutionTime = 1.72 s  ClockTime = 1 s

Time = 569

smoothSolver:  Solving for Ux, Initial residual = 8.44643e-07, Final residual = 8.44643e-07, No Iterations 0
smoothSolver:  Solving for Uy, Initial residual = 1.06065e-06, Final residual = 1.06065e-06, No Iterations 0
GAMG:  Solving for p, Initial residual = 8.53524e-07, Final residual = 8.53524e-07, No Iterations 0
time step continuity errors : sum local = 1.35675e-06, global = -1.6119e-17, cumulative = -5.7494e-16
ExecutionTime = 1.73 s  ClockTime = 1 s

Time = 570

smoothSolver:  Solving for Ux, Initial residual = 8.46631e-07, Final residual = 8.46631e-07, No Iterations 0
smoothSolver:  Solving for Uy, Initial residual = 1.05667e-06, Final residual = 1.05667e-06, No Iterations 0
GAMG:  Solving for p, Initial residual = 1.1224e-06, Final residual = 3.80459e-07, No Iterations 1
time step continuity errors : sum local = 6.24384e-07, global = -4.43729e-17, cumulative = -6.19313e-16
ExecutionTime = 1.73 s  ClockTime = 1 s

Time = 571

smoothSolver:  Solving for Ux, Initial residual = 8.28011e-07, Final residual = 8.28011e-07, No Iterations 0
smoothSolver:  Solving for Uy, Initial residual = 1.04584e-06, Final residual = 1.04584e-06, No Iterations 0
GAMG:  Solving for p, Initial residual = 5.97727e-07, Final residual = 5.97727e-07, No Iterations 0
time step continuity errors : sum local = 9.61112e-07, global = -8.19293e-18, cumulative = -6.27506e-16
ExecutionTime = 1.73 s  ClockTime = 1 s

Time = 572

smoothSolver:  Solving for Ux, Initial residual = 8.28643e-07, Final residual = 8.28643e-07, No Iterations 0
smoothSolver:  Solving for Uy, Initial residual = 1.03925e-06, Final residual = 1.03925e-06, No Iterations 0
GAMG:  Solving for p, Initial residual = 8.3797e-07, Final residual = 8.3797e-07, No Iterations 0
time step continuity errors : sum local = 1.3344e-06, global = -1.1022e-18, cumulative = -6.28608e-16
ExecutionTime = 1.73 s  ClockTime = 1 s

Time = 573

smoothSolver:  Solving for Ux, Initial residual = 8.30596e-07, Final residual = 8.30596e-07, No Iterations 0
smoothSolver:  Solving for Uy, Initial residual = 1.03534e-06, Final residual = 1.03534e-06, No Iterations 0
GAMG:  Solving for p, Initial residual = 1.10122e-06, Final residual = 3.73299e-07, No Iterations 1
time step continuity errors : sum local = 6.15143e-07, global = -4.79272e-17, cumulative = -6.76535e-16
ExecutionTime = 1.74 s  ClockTime = 1 s

Time = 574

smoothSolver:  Solving for Ux, Initial residual = 8.12324e-07, Final residual = 8.12324e-07, No Iterations 0
smoothSolver:  Solving for Uy, Initial residual = 1.02497e-06, Final residual = 1.02497e-06, No Iterations 0
GAMG:  Solving for p, Initial residual = 5.85796e-07, Final residual = 5.85796e-07, No Iterations 0
time step continuity errors : sum local = 9.44443e-07, global = -4.46302e-17, cumulative = -7.21165e-16
ExecutionTime = 1.74 s  ClockTime = 1 s

Time = 575

smoothSolver:  Solving for Ux, Initial residual = 8.1294e-07, Final residual = 8.1294e-07, No Iterations 0
smoothSolver:  Solving for Uy, Initial residual = 1.01849e-06, Final residual = 1.01849e-06, No Iterations 0
GAMG:  Solving for p, Initial residual = 8.21031e-07, Final residual = 8.21031e-07, No Iterations 0
time step continuity errors : sum local = 1.30994e-06, global = 3.44361e-17, cumulative = -6.86729e-16
ExecutionTime = 1.74 s  ClockTime = 1 s

Time = 576

smoothSolver:  Solving for Ux, Initial residual = 8.14871e-07, Final residual = 8.14871e-07, No Iterations 0
smoothSolver:  Solving for Uy, Initial residual = 1.01465e-06, Final residual = 1.01465e-06, No Iterations 0
GAMG:  Solving for p, Initial residual = 1.07883e-06, Final residual = 3.65353e-07, No Iterations 1
time step continuity errors : sum local = 6.04682e-07, global = 6.98273e-18, cumulative = -6.79746e-16
ExecutionTime = 1.75 s  ClockTime = 1 s

Time = 577

smoothSolver:  Solving for Ux, Initial residual = 7.96952e-07, Final residual = 7.96952e-07, No Iterations 0
smoothSolver:  Solving for Uy, Initial residual = 1.00479e-06, Final residual = 1.00479e-06, No Iterations 0
GAMG:  Solving for p, Initial residual = 5.73461e-07, Final residual = 5.73461e-07, No Iterations 0
time step continuity errors : sum local = 9.27157e-07, global = -1.23148e-17, cumulative = -6.92061e-16
ExecutionTime = 1.75 s  ClockTime = 1 s

Time = 578

smoothSolver:  Solving for Ux, Initial residual = 7.9756e-07, Final residual = 7.9756e-07, No Iterations 0
smoothSolver:  Solving for Uy, Initial residual = 9.98397e-07, Final residual = 9.98397e-07, No Iterations 0
GAMG:  Solving for p, Initial residual = 8.03943e-07, Final residual = 8.03943e-07, No Iterations 0
time step continuity errors : sum local = 1.28526e-06, global = -6.28075e-18, cumulative = -6.98342e-16
ExecutionTime = 1.75 s  ClockTime = 1 s


SIMPLE solution converged in 578 iterations

End

